.DC V1 0 5V 1V
.PRINT DC V(1) I(V1)  bar

