TSpice netlist for Diode clipper circuit with transient analysis statement
*
* Voltage Sources
V1 N04104 0 5V
V2 N04173 0 SIN(0V 10V 1kHz)
* Analysis Command
.TRAN 0 2ms
* Output
.PRINT TRAN V(N04173) V(N03179) V(N03334) V(N04104)
* Diodes
D_D1 N03179 N04104 D1N3940
D_D2 0 N03179 D1N3940
* Resistors
R1 N03179 N04173 1K
R2 N04104 N03179 3.3K
R3 N03179 0 3.3K
R4 N03334 0 5.6K
* Capacitor
C1 N03179 N03334 0.47u
*

.LIB diodeModel.lib

.END
