* "Wide" nfet model (use nnfet for widths less than about 4u):
.model nfet nmos
+     Level=3          Uo=515          Vto=0.88      Tox=265e-10     
+     NSub=2.8e+16     Gamma=0.45      Phi=0.56
+     Ld=0.205u      Xj=0.25u     VMax=1.43e+5     Delta=0.2
+     Js=1000u     Pb=0.8          Cgso=245p      Cgdo=245p     
+     Cgbo=430p     Cj=250u      Cjsw=290p     Mjsw=0.3     
+     Fc=0           Tpg=1       
+     Theta=0.045     Eta=0.02     Kappa=0.3
*+     Wd=0.76u
*+     Rsh=70
     
* "Narrow" nfet model; use for widths less than about 4u:
.model nnfet nmos
+     Level=3          Uo=515          Vto=0.90      Tox=265e-10     
+     NSub=2.8e+16     Gamma=0.52      Phi=0.56
+     Ld=0.205u      Xj=0.25u     VMax=1.43e+5     Delta=0.2
+     Js=1000u     Pb=0.8          Cgso=245p      Cgdo=245p     
+     Cgbo=430p     Cj=250u      Cjsw=290p     Mjsw=0.3     
+     Fc=0           Tpg=1       
+     Theta=0.045     Eta=0.02     Kappa=0.3
*+     Wd=0.76u
*+     Rsh=70

* "Wide" pfet model (use npfet for widths less than 4u):
.model pfet pmos
+     Level=3          Uo=193          Vto=-0.80      Tox=265e-10     
+     NSub=2.8e+16     Gamma=0.50      Phi=0.60
+     Ld=-0.025u      Xj=0.20u     VMax=2.3e+5     Delta=0
+     Js=1000u     Pb=0.9          Cgso=245p      Cgdo=245p     
+     Cgbo=430p     Cj=720u      Cjsw=255p     Mjsw=0.3     
+      Fc=0           Tpg=-1  
+     Theta=0.12     Eta=0.02     Kappa=10.0
*+     Wd=0.78u
*+     Rsh=150

* "Narrow" pfet model; use for widths less than 4u:
.model npfet pmos
+     Level=3          Uo=193          Vto=-1.05      Tox=265e-10     
+     NSub=2.8e+16     Gamma=0.70      Phi=0.60
+     Ld=-0.025u      Xj=0.20u     VMax=2.3e+5     Delta=0
+     Js=1000u     Pb=0.9          Cgso=245p      Cgdo=245p     
+     Cgbo=430p     Cj=720u      Cjsw=255p     Mjsw=0.3     
+     Fc=0           Tpg=-1  
+     Theta=0.12     Eta=0.02     Kappa=10.0
*+     Wd=0.78u
*+     Rsh=150

cc4 3 1 1.1113e-14
cc11 4 0 1.8504e-13
cc49 6 7 1.2e-14
cc87 6 0 4.064e-14
cc126 11 0 9.2344e-14
cc175 7 0 2.6992e-14
cc213 14 6 1.4824e-14
cc261 4 15 3.1439e-14
cc300 17 4 1.024e-14
cc342 6 15 2.2623e-14
cc343 19 4 2.032e-14
cc344 14 0 2.6992e-14
cc345 20 0 4.6678e-14
cc383 6 17 1.2464e-14
cc384 11 15 1.288e-14
cc419 6 19 3.0648e-14
cc459 11 19 1.0982e-14
cc466 1 4 3.2832e-14
cc470 15 0 1.26282e-13
cc507 19 7 1.2e-14
cc510 17 0 4.3232e-14
cc541 1 6 1.36302e-13
cc544 19 0 4.5296e-14
cc588 11 1 2.2752e-14
cc592 3 0 1.067e-14
cc628 1 7 4.49e-14
cc668 14 19 2.1766e-14
cc672 1 0 1.79232e-13
cc675 27 28 1.65984e-13
cc760 17 15 1.024e-14
cc777 32 1 1.5288e-14
cc797 14 1 7.8984e-14
cc803 1 20 4.4738e-14
cc804 19 15 2.3232e-14
cc845 19 17 1.2688e-14
cc915 27 0 1.24008e-13
cc938 1 15 4.2789e-14
cc939 6 4 1.8768e-14
cc942 20 34 1.584e-14
cc982 1 17 3.2202e-14
cc983 11 4 1.2e-14
cc1008 37 0 1.0924e-14
cc1022 1 19 1.31805e-13
cc1049 28 0 1.16796e-13
c0 38 0 1.2301e-14
c1 1 0 3.388e-12
c2 39 0 1.2301e-14
c3 40 0 1.2301e-14
c4 41 0 1.2301e-14
c5 42 0 1.2301e-14
c6 43 0 1.2301e-14
c7 44 0 1.2301e-14
c8 45 0 1.2301e-14
c9 46 0 1.2301e-14
c10 47 0 1.2301e-14
c11 48 0 1.2301e-14
c12 49 0 1.2301e-14
c13 50 0 1.2301e-14
c14 51 0 1.2301e-14
c15 52 0 1.2301e-14
c16 53 0 1.2301e-14
c17 54 0 1.2301e-14
c18 55 0 1.2301e-14
c19 56 0 1.2301e-14
c20 57 0 1.2301e-14
c21 58 0 1.2301e-14
c22 59 0 1.2301e-14
c23 60 0 1.2301e-14
c24 27 0 3.74885e-13
c25 61 0 1.0116e-14
c26 62 0 1.2148e-14
c27 63 0 1.0116e-14
c28 64 0 1.2148e-14
c29 65 0 1.0116e-14
c30 66 0 1.2148e-14
c31 67 0 1.0116e-14
c32 68 0 1.2148e-14
c33 69 0 1.0116e-14
c34 70 0 1.2148e-14
c35 71 0 1.0116e-14
c36 72 0 1.2148e-14
c37 73 0 1.0116e-14
c38 74 0 1.2148e-14
c39 75 0 1.0116e-14
c40 76 0 1.2148e-14
c41 77 0 1.0116e-14
c42 78 0 1.2148e-14
c43 79 0 1.0116e-14
c44 80 0 1.2148e-14
c45 81 0 1.0116e-14
c46 82 0 1.2148e-14
c47 83 0 1.0116e-14
c48 84 0 1.2148e-14
c49 85 0 1.0116e-14
c50 86 0 1.2148e-14
c51 87 0 1.0116e-14
c52 88 0 1.2148e-14
c53 89 0 1.0116e-14
c54 90 0 1.2148e-14
c55 91 0 1.0116e-14
c56 92 0 1.2148e-14
c57 93 0 1.0116e-14
c58 94 0 1.2148e-14
c59 95 0 1.0116e-14
c60 96 0 1.2148e-14
c61 97 0 1.0116e-14
c62 98 0 1.2148e-14
c63 99 0 1.0116e-14
c64 100 0 1.2148e-14
c65 101 0 1.0116e-14
c66 102 0 1.2148e-14
c67 103 0 1.0116e-14
c68 104 0 1.2148e-14
c69 105 0 1.0116e-14
c70 106 0 1.2148e-14
c71 107 0 1.0116e-14
c72 108 0 1.3108e-14
c73 37 0 6.2074e-14
c74 109 0 1.1282e-14
c75 110 0 2.2644e-14
c76 111 0 8.0774e-14
c77 112 0 3.297e-14
c79 28 0 3.85102e-13
c80 113 0 3.7197e-14
c81 114 0 1.4262e-14
c82 115 0 2.7294e-14
c83 116 0 3.4903e-14
c84 117 0 3.2074e-14
c85 118 0 4.0114e-14
c86 19 0 5.55497e-13
c87 119 0 3.8458e-14
c88 120 0 1.3092e-14
c89 15 0 5.66346e-13
c91 6 0 5.6416e-13
c94 17 0 2.56302e-13
c96 14 0 2.82304e-13
c98 4 0 5.4241e-13
c103 11 0 2.63118e-13
c105 121 0 5.0108e-14
c109 122 0 2.3174e-14
c110 123 0 1.2956e-14
c111 124 0 1.5468e-14
c116 125 0 1.06678e-13
c118 7 0 1.91906e-13
c121 32 0 2.7238e-14
c123 126 0 3.4004e-14
c124 127 0 3.3074e-14
c128 128 0 2.218e-14
c132 129 0 1.2934e-14
c133 130 0 1.355e-14
c135 131 0 1.1069e-13
c138 132 0 3.6373e-14
c139 3 0 4.1085e-14
c142 133 0 1.018e-14
c144 34 0 4.2488e-14
c145 20 0 3.83758e-13
m0 1 38 149 1 pfet l=1.6e-06 w=8e-06 
+ as=4.8e-12 ad=1.4044e-10 ps=9.2e-06 pd=6.109e-05 
+ nrs=0.07 nrd=2.19 
m1 1 39 150 1 pfet l=1.6e-06 w=8e-06 
+ as=4.8e-12 ad=1.4044e-10 ps=9.2e-06 pd=6.109e-05 
+ nrs=0.07 nrd=2.19 
m2 1 40 151 1 pfet l=1.6e-06 w=8e-06 
+ as=4.8e-12 ad=1.4044e-10 ps=9.2e-06 pd=6.109e-05 
+ nrs=0.07 nrd=2.19 
m3 1 41 152 1 pfet l=1.6e-06 w=8e-06 
+ as=4.8e-12 ad=1.4044e-10 ps=9.2e-06 pd=6.109e-05 
+ nrs=0.07 nrd=2.19 
m4 1 42 153 1 pfet l=1.6e-06 w=8e-06 
+ as=4.8e-12 ad=1.4044e-10 ps=9.2e-06 pd=6.109e-05 
+ nrs=0.07 nrd=2.19 
m5 1 43 154 1 pfet l=1.6e-06 w=8e-06 
+ as=4.8e-12 ad=1.4044e-10 ps=9.2e-06 pd=6.109e-05 
+ nrs=0.07 nrd=2.19 
m6 1 44 155 1 pfet l=1.6e-06 w=8e-06 
+ as=4.8e-12 ad=1.4044e-10 ps=9.2e-06 pd=6.109e-05 
+ nrs=0.07 nrd=2.19 
m7 1 45 156 1 pfet l=1.6e-06 w=8e-06 
+ as=4.8e-12 ad=1.4044e-10 ps=9.2e-06 pd=6.109e-05 
+ nrs=0.07 nrd=2.19 
m8 1 46 157 1 pfet l=1.6e-06 w=8e-06 
+ as=4.8e-12 ad=1.4044e-10 ps=9.2e-06 pd=6.109e-05 
+ nrs=0.07 nrd=2.19 
m9 1 47 158 1 pfet l=1.6e-06 w=8e-06 
+ as=4.8e-12 ad=1.4044e-10 ps=9.2e-06 pd=6.109e-05 
+ nrs=0.07 nrd=2.19 
m10 1 48 159 1 pfet l=1.6e-06 w=8e-06 
+ as=4.8e-12 ad=1.4044e-10 ps=9.2e-06 pd=6.109e-05 
+ nrs=0.07 nrd=2.19 
m11 1 49 160 1 pfet l=1.6e-06 w=8e-06 
+ as=4.8e-12 ad=1.4044e-10 ps=9.2e-06 pd=6.109e-05 
+ nrs=0.07 nrd=2.19 
m12 1 50 161 1 pfet l=1.6e-06 w=8e-06 
+ as=4.8e-12 ad=1.4044e-10 ps=9.2e-06 pd=6.109e-05 
+ nrs=0.07 nrd=2.19 
m13 1 51 162 1 pfet l=1.6e-06 w=8e-06 
+ as=4.8e-12 ad=1.4044e-10 ps=9.2e-06 pd=6.109e-05 
+ nrs=0.07 nrd=2.19 
m14 1 52 163 1 pfet l=1.6e-06 w=8e-06 
+ as=4.8e-12 ad=1.4044e-10 ps=9.2e-06 pd=6.109e-05 
+ nrs=0.07 nrd=2.19 
m15 1 53 164 1 pfet l=1.6e-06 w=8e-06 
+ as=4.8e-12 ad=1.4044e-10 ps=9.2e-06 pd=6.109e-05 
+ nrs=0.07 nrd=2.19 
m16 1 54 165 1 pfet l=1.6e-06 w=8e-06 
+ as=4.8e-12 ad=1.4044e-10 ps=9.2e-06 pd=6.109e-05 
+ nrs=0.07 nrd=2.19 
m17 1 55 166 1 pfet l=1.6e-06 w=8e-06 
+ as=4.8e-12 ad=1.4044e-10 ps=9.2e-06 pd=6.109e-05 
+ nrs=0.07 nrd=2.19 
m18 1 56 167 1 pfet l=1.6e-06 w=8e-06 
+ as=4.8e-12 ad=1.4044e-10 ps=9.2e-06 pd=6.109e-05 
+ nrs=0.07 nrd=2.19 
m19 1 57 168 1 pfet l=1.6e-06 w=8e-06 
+ as=4.8e-12 ad=1.4044e-10 ps=9.2e-06 pd=6.109e-05 
+ nrs=0.07 nrd=2.19 
m20 1 58 169 1 pfet l=1.6e-06 w=8e-06 
+ as=4.8e-12 ad=1.4044e-10 ps=9.2e-06 pd=6.109e-05 
+ nrs=0.07 nrd=2.19 
m21 1 59 170 1 pfet l=1.6e-06 w=8e-06 
+ as=4.8e-12 ad=1.4044e-10 ps=9.2e-06 pd=6.109e-05 
+ nrs=0.07 nrd=2.19 
m22 1 60 171 1 pfet l=1.6e-06 w=8e-06 
+ as=4.8e-12 ad=1.4044e-10 ps=9.2e-06 pd=6.109e-05 
+ nrs=0.07 nrd=2.19 
m23 1 0 27 1 npfet l=1.6e-06 w=2.8e-06 
+ as=6.26e-12 ad=4.915e-11 ps=4.58e-06 pd=2.138e-05 
+ nrs=0.8 nrd=6.27 
m24 149 61 62 1 pfet l=1.6e-06 w=8e-06 
+ as=2.688e-11 ad=4.8e-12 ps=2.32e-05 pd=9.2e-06 
+ nrs=0.42 nrd=0.07 
m25 150 63 64 1 pfet l=1.6e-06 w=8e-06 
+ as=2.688e-11 ad=4.8e-12 ps=2.32e-05 pd=9.2e-06 
+ nrs=0.42 nrd=0.07 
m26 151 65 66 1 pfet l=1.6e-06 w=8e-06 
+ as=2.688e-11 ad=4.8e-12 ps=2.32e-05 pd=9.2e-06 
+ nrs=0.42 nrd=0.07 
m27 152 67 68 1 pfet l=1.6e-06 w=8e-06 
+ as=2.688e-11 ad=4.8e-12 ps=2.32e-05 pd=9.2e-06 
+ nrs=0.42 nrd=0.07 
m28 153 69 70 1 pfet l=1.6e-06 w=8e-06 
+ as=2.688e-11 ad=4.8e-12 ps=2.32e-05 pd=9.2e-06 
+ nrs=0.42 nrd=0.07 
m29 154 71 72 1 pfet l=1.6e-06 w=8e-06 
+ as=2.688e-11 ad=4.8e-12 ps=2.32e-05 pd=9.2e-06 
+ nrs=0.42 nrd=0.07 
m30 155 73 74 1 pfet l=1.6e-06 w=8e-06 
+ as=2.688e-11 ad=4.8e-12 ps=2.32e-05 pd=9.2e-06 
+ nrs=0.42 nrd=0.07 
m31 156 75 76 1 pfet l=1.6e-06 w=8e-06 
+ as=2.688e-11 ad=4.8e-12 ps=2.32e-05 pd=9.2e-06 
+ nrs=0.42 nrd=0.07 
m32 157 77 78 1 pfet l=1.6e-06 w=8e-06 
+ as=2.688e-11 ad=4.8e-12 ps=2.32e-05 pd=9.2e-06 
+ nrs=0.42 nrd=0.07 
m33 158 79 80 1 pfet l=1.6e-06 w=8e-06 
+ as=2.688e-11 ad=4.8e-12 ps=2.32e-05 pd=9.2e-06 
+ nrs=0.42 nrd=0.07 
m34 159 81 82 1 pfet l=1.6e-06 w=8e-06 
+ as=2.688e-11 ad=4.8e-12 ps=2.32e-05 pd=9.2e-06 
+ nrs=0.42 nrd=0.07 
m35 160 83 84 1 pfet l=1.6e-06 w=8e-06 
+ as=2.688e-11 ad=4.8e-12 ps=2.32e-05 pd=9.2e-06 
+ nrs=0.42 nrd=0.07 
m36 161 85 86 1 pfet l=1.6e-06 w=8e-06 
+ as=2.688e-11 ad=4.8e-12 ps=2.32e-05 pd=9.2e-06 
+ nrs=0.42 nrd=0.07 
m37 162 87 88 1 pfet l=1.6e-06 w=8e-06 
+ as=2.688e-11 ad=4.8e-12 ps=2.32e-05 pd=9.2e-06 
+ nrs=0.42 nrd=0.07 
m38 163 89 90 1 pfet l=1.6e-06 w=8e-06 
+ as=2.688e-11 ad=4.8e-12 ps=2.32e-05 pd=9.2e-06 
+ nrs=0.42 nrd=0.07 
m39 164 91 92 1 pfet l=1.6e-06 w=8e-06 
+ as=2.688e-11 ad=4.8e-12 ps=2.32e-05 pd=9.2e-06 
+ nrs=0.42 nrd=0.07 
m40 165 93 94 1 pfet l=1.6e-06 w=8e-06 
+ as=2.688e-11 ad=4.8e-12 ps=2.32e-05 pd=9.2e-06 
+ nrs=0.42 nrd=0.07 
m41 166 95 96 1 pfet l=1.6e-06 w=8e-06 
+ as=2.688e-11 ad=4.8e-12 ps=2.32e-05 pd=9.2e-06 
+ nrs=0.42 nrd=0.07 
m42 167 97 98 1 pfet l=1.6e-06 w=8e-06 
+ as=2.688e-11 ad=4.8e-12 ps=2.32e-05 pd=9.2e-06 
+ nrs=0.42 nrd=0.07 
m43 168 99 100 1 pfet l=1.6e-06 w=8e-06 
+ as=2.688e-11 ad=4.8e-12 ps=2.32e-05 pd=9.2e-06 
+ nrs=0.42 nrd=0.07 
m44 169 101 102 1 pfet l=1.6e-06 w=8e-06 
+ as=2.688e-11 ad=4.8e-12 ps=2.32e-05 pd=9.2e-06 
+ nrs=0.42 nrd=0.07 
m45 170 103 104 1 pfet l=1.6e-06 w=8e-06 
+ as=2.688e-11 ad=4.8e-12 ps=2.32e-05 pd=9.2e-06 
+ nrs=0.42 nrd=0.07 
m46 171 105 106 1 pfet l=1.6e-06 w=8e-06 
+ as=2.688e-11 ad=4.8e-12 ps=2.32e-05 pd=9.2e-06 
+ nrs=0.42 nrd=0.07 
m47 1 107 108 1 pfet l=1.6e-06 w=8e-06 
+ as=2.688e-11 ad=1.4044e-10 ps=2.32e-05 pd=6.109e-05 
+ nrs=0.42 nrd=2.19 
m48 1 37 109 1 pfet l=1.6e-06 w=6.8e-06 
+ as=1.723e-11 ad=1.1937e-10 ps=1.413e-05 pd=5.193e-05 
+ nrs=0.37 nrd=2.58 
m49 109 110 1 1 pfet l=1.6e-06 w=6.8e-06 
+ as=1.1937e-10 ad=1.723e-11 ps=5.193e-05 pd=1.413e-05 
+ nrs=2.58 nrd=0.37 
m50 109 111 112 1 pfet l=1.6e-06 w=6.8e-06 
+ as=1.567e-11 ad=1.723e-11 ps=1.425e-05 pd=1.413e-05 
+ nrs=0.34 nrd=0.37 
m51 112 109 111 1 pfet l=1.6e-06 w=6.8e-06 
+ as=2.448e-11 ad=1.567e-11 ps=2.08e-05 pd=1.425e-05 
+ nrs=0.53 nrd=0.34 
m52 172 111 1 1 pfet l=1.6e-06 w=6.8e-06 
+ as=1.1937e-10 ad=2.448e-11 ps=5.193e-05 pd=2.08e-05 
+ nrs=2.58 nrd=0.53 
m53 0 38 62 0 nfet l=1.6e-06 w=4.8e-06 
+ as=9.6e-12 ad=9.206e-11 ps=8.8e-06 pd=4.311e-05 
+ nrs=0.42 nrd=4 
m54 62 61 0 0 nfet l=1.6e-06 w=4.8e-06 
+ as=9.206e-11 ad=9.6e-12 ps=4.311e-05 pd=8.8e-06 
+ nrs=4 nrd=0.42 
m55 0 39 64 0 nfet l=1.6e-06 w=4.8e-06 
+ as=9.6e-12 ad=9.206e-11 ps=8.8e-06 pd=4.311e-05 
+ nrs=0.42 nrd=4 
m56 64 63 0 0 nfet l=1.6e-06 w=4.8e-06 
+ as=9.206e-11 ad=9.6e-12 ps=4.311e-05 pd=8.8e-06 
+ nrs=4 nrd=0.42 
m57 0 40 66 0 nfet l=1.6e-06 w=4.8e-06 
+ as=9.6e-12 ad=9.206e-11 ps=8.8e-06 pd=4.311e-05 
+ nrs=0.42 nrd=4 
m58 66 65 0 0 nfet l=1.6e-06 w=4.8e-06 
+ as=9.206e-11 ad=9.6e-12 ps=4.311e-05 pd=8.8e-06 
+ nrs=4 nrd=0.42 
m59 0 41 68 0 nfet l=1.6e-06 w=4.8e-06 
+ as=9.6e-12 ad=9.206e-11 ps=8.8e-06 pd=4.311e-05 
+ nrs=0.42 nrd=4 
m60 68 67 0 0 nfet l=1.6e-06 w=4.8e-06 
+ as=9.206e-11 ad=9.6e-12 ps=4.311e-05 pd=8.8e-06 
+ nrs=4 nrd=0.42 
m61 0 42 70 0 nfet l=1.6e-06 w=4.8e-06 
+ as=9.6e-12 ad=9.206e-11 ps=8.8e-06 pd=4.311e-05 
+ nrs=0.42 nrd=4 
m62 70 69 0 0 nfet l=1.6e-06 w=4.8e-06 
+ as=9.206e-11 ad=9.6e-12 ps=4.311e-05 pd=8.8e-06 
+ nrs=4 nrd=0.42 
m63 0 43 72 0 nfet l=1.6e-06 w=4.8e-06 
+ as=9.6e-12 ad=9.206e-11 ps=8.8e-06 pd=4.311e-05 
+ nrs=0.42 nrd=4 
m64 72 71 0 0 nfet l=1.6e-06 w=4.8e-06 
+ as=9.206e-11 ad=9.6e-12 ps=4.311e-05 pd=8.8e-06 
+ nrs=4 nrd=0.42 
m65 0 44 74 0 nfet l=1.6e-06 w=4.8e-06 
+ as=9.6e-12 ad=9.206e-11 ps=8.8e-06 pd=4.311e-05 
+ nrs=0.42 nrd=4 
m66 74 73 0 0 nfet l=1.6e-06 w=4.8e-06 
+ as=9.206e-11 ad=9.6e-12 ps=4.311e-05 pd=8.8e-06 
+ nrs=4 nrd=0.42 
m67 0 45 76 0 nfet l=1.6e-06 w=4.8e-06 
+ as=9.6e-12 ad=9.206e-11 ps=8.8e-06 pd=4.311e-05 
+ nrs=0.42 nrd=4 
m68 76 75 0 0 nfet l=1.6e-06 w=4.8e-06 
+ as=9.206e-11 ad=9.6e-12 ps=4.311e-05 pd=8.8e-06 
+ nrs=4 nrd=0.42 
m69 0 46 78 0 nfet l=1.6e-06 w=4.8e-06 
+ as=9.6e-12 ad=9.206e-11 ps=8.8e-06 pd=4.311e-05 
+ nrs=0.42 nrd=4 
m70 78 77 0 0 nfet l=1.6e-06 w=4.8e-06 
+ as=9.206e-11 ad=9.6e-12 ps=4.311e-05 pd=8.8e-06 
+ nrs=4 nrd=0.42 
m71 0 47 80 0 nfet l=1.6e-06 w=4.8e-06 
+ as=9.6e-12 ad=9.206e-11 ps=8.8e-06 pd=4.311e-05 
+ nrs=0.42 nrd=4 
m72 80 79 0 0 nfet l=1.6e-06 w=4.8e-06 
+ as=9.206e-11 ad=9.6e-12 ps=4.311e-05 pd=8.8e-06 
+ nrs=4 nrd=0.42 
m73 0 48 82 0 nfet l=1.6e-06 w=4.8e-06 
+ as=9.6e-12 ad=9.206e-11 ps=8.8e-06 pd=4.311e-05 
+ nrs=0.42 nrd=4 
m74 82 81 0 0 nfet l=1.6e-06 w=4.8e-06 
+ as=9.206e-11 ad=9.6e-12 ps=4.311e-05 pd=8.8e-06 
+ nrs=4 nrd=0.42 
m75 0 49 84 0 nfet l=1.6e-06 w=4.8e-06 
+ as=9.6e-12 ad=9.206e-11 ps=8.8e-06 pd=4.311e-05 
+ nrs=0.42 nrd=4 
m76 84 83 0 0 nfet l=1.6e-06 w=4.8e-06 
+ as=9.206e-11 ad=9.6e-12 ps=4.311e-05 pd=8.8e-06 
+ nrs=4 nrd=0.42 
m77 0 50 86 0 nfet l=1.6e-06 w=4.8e-06 
+ as=9.6e-12 ad=9.206e-11 ps=8.8e-06 pd=4.311e-05 
+ nrs=0.42 nrd=4 
m78 86 85 0 0 nfet l=1.6e-06 w=4.8e-06 
+ as=9.206e-11 ad=9.6e-12 ps=4.311e-05 pd=8.8e-06 
+ nrs=4 nrd=0.42 
m79 0 51 88 0 nfet l=1.6e-06 w=4.8e-06 
+ as=9.6e-12 ad=9.206e-11 ps=8.8e-06 pd=4.311e-05 
+ nrs=0.42 nrd=4 
m80 88 87 0 0 nfet l=1.6e-06 w=4.8e-06 
+ as=9.206e-11 ad=9.6e-12 ps=4.311e-05 pd=8.8e-06 
+ nrs=4 nrd=0.42 
m81 0 52 90 0 nfet l=1.6e-06 w=4.8e-06 
+ as=9.6e-12 ad=9.206e-11 ps=8.8e-06 pd=4.311e-05 
+ nrs=0.42 nrd=4 
m82 90 89 0 0 nfet l=1.6e-06 w=4.8e-06 
+ as=9.206e-11 ad=9.6e-12 ps=4.311e-05 pd=8.8e-06 
+ nrs=4 nrd=0.42 
m83 0 53 92 0 nfet l=1.6e-06 w=4.8e-06 
+ as=9.6e-12 ad=9.206e-11 ps=8.8e-06 pd=4.311e-05 
+ nrs=0.42 nrd=4 
m84 92 91 0 0 nfet l=1.6e-06 w=4.8e-06 
+ as=9.206e-11 ad=9.6e-12 ps=4.311e-05 pd=8.8e-06 
+ nrs=4 nrd=0.42 
m85 0 54 94 0 nfet l=1.6e-06 w=4.8e-06 
+ as=9.6e-12 ad=9.206e-11 ps=8.8e-06 pd=4.311e-05 
+ nrs=0.42 nrd=4 
m86 94 93 0 0 nfet l=1.6e-06 w=4.8e-06 
+ as=9.206e-11 ad=9.6e-12 ps=4.311e-05 pd=8.8e-06 
+ nrs=4 nrd=0.42 
m87 0 55 96 0 nfet l=1.6e-06 w=4.8e-06 
+ as=9.6e-12 ad=9.206e-11 ps=8.8e-06 pd=4.311e-05 
+ nrs=0.42 nrd=4 
m88 96 95 0 0 nfet l=1.6e-06 w=4.8e-06 
+ as=9.206e-11 ad=9.6e-12 ps=4.311e-05 pd=8.8e-06 
+ nrs=4 nrd=0.42 
m89 0 56 98 0 nfet l=1.6e-06 w=4.8e-06 
+ as=9.6e-12 ad=9.206e-11 ps=8.8e-06 pd=4.311e-05 
+ nrs=0.42 nrd=4 
m90 98 97 0 0 nfet l=1.6e-06 w=4.8e-06 
+ as=9.206e-11 ad=9.6e-12 ps=4.311e-05 pd=8.8e-06 
+ nrs=4 nrd=0.42 
m91 0 57 100 0 nfet l=1.6e-06 w=4.8e-06 
+ as=9.6e-12 ad=9.206e-11 ps=8.8e-06 pd=4.311e-05 
+ nrs=0.42 nrd=4 
m92 100 99 0 0 nfet l=1.6e-06 w=4.8e-06 
+ as=9.206e-11 ad=9.6e-12 ps=4.311e-05 pd=8.8e-06 
+ nrs=4 nrd=0.42 
m93 0 58 102 0 nfet l=1.6e-06 w=4.8e-06 
+ as=9.6e-12 ad=9.206e-11 ps=8.8e-06 pd=4.311e-05 
+ nrs=0.42 nrd=4 
m94 102 101 0 0 nfet l=1.6e-06 w=4.8e-06 
+ as=9.206e-11 ad=9.6e-12 ps=4.311e-05 pd=8.8e-06 
+ nrs=4 nrd=0.42 
m95 0 59 104 0 nfet l=1.6e-06 w=4.8e-06 
+ as=9.6e-12 ad=9.206e-11 ps=8.8e-06 pd=4.311e-05 
+ nrs=0.42 nrd=4 
m96 104 103 0 0 nfet l=1.6e-06 w=4.8e-06 
+ as=9.206e-11 ad=9.6e-12 ps=4.311e-05 pd=8.8e-06 
+ nrs=4 nrd=0.42 
m97 0 60 106 0 nfet l=1.6e-06 w=4.8e-06 
+ as=9.6e-12 ad=9.206e-11 ps=8.8e-06 pd=4.311e-05 
+ nrs=0.42 nrd=4 
m98 106 105 0 0 nfet l=1.6e-06 w=4.8e-06 
+ as=9.206e-11 ad=9.6e-12 ps=4.311e-05 pd=8.8e-06 
+ nrs=4 nrd=0.42 
m99 108 107 0 0 nfet l=1.6e-06 w=4.8e-06 
+ as=9.206e-11 ad=1.728e-11 ps=4.311e-05 pd=1.68e-05 
+ nrs=4 nrd=0.75 
m100 28 62 27 0 nfet l=1.6e-06 w=1.12e-05 
+ as=2.842e-11 ad=2.791e-11 ps=2.011e-05 pd=1.973e-05 
+ nrs=0.23 nrd=0.22 
m101 27 62 28 0 nfet l=1.6e-06 w=1.12e-05 
+ as=2.791e-11 ad=2.842e-11 ps=1.973e-05 pd=2.011e-05 
+ nrs=0.22 nrd=0.23 
m102 28 62 27 0 nfet l=1.6e-06 w=1.12e-05 
+ as=2.842e-11 ad=2.791e-11 ps=2.011e-05 pd=1.973e-05 
+ nrs=0.23 nrd=0.22 
m103 28 64 27 0 nfet l=1.6e-06 w=1.12e-05 
+ as=2.842e-11 ad=2.791e-11 ps=2.011e-05 pd=1.973e-05 
+ nrs=0.23 nrd=0.22 
m104 27 64 28 0 nfet l=1.6e-06 w=1.12e-05 
+ as=2.791e-11 ad=2.842e-11 ps=1.973e-05 pd=2.011e-05 
+ nrs=0.22 nrd=0.23 
m105 28 64 27 0 nfet l=1.6e-06 w=1.12e-05 
+ as=2.842e-11 ad=2.791e-11 ps=2.011e-05 pd=1.973e-05 
+ nrs=0.23 nrd=0.22 
m106 28 66 27 0 nfet l=1.6e-06 w=1.12e-05 
+ as=2.842e-11 ad=2.791e-11 ps=2.011e-05 pd=1.973e-05 
+ nrs=0.23 nrd=0.22 
m107 27 66 28 0 nfet l=1.6e-06 w=1.12e-05 
+ as=2.791e-11 ad=2.842e-11 ps=1.973e-05 pd=2.011e-05 
+ nrs=0.22 nrd=0.23 
m108 28 66 27 0 nfet l=1.6e-06 w=1.12e-05 
+ as=2.842e-11 ad=2.791e-11 ps=2.011e-05 pd=1.973e-05 
+ nrs=0.23 nrd=0.22 
m109 28 68 27 0 nfet l=1.6e-06 w=1.12e-05 
+ as=2.842e-11 ad=2.791e-11 ps=2.011e-05 pd=1.973e-05 
+ nrs=0.23 nrd=0.22 
m110 27 68 28 0 nfet l=1.6e-06 w=1.12e-05 
+ as=2.791e-11 ad=2.842e-11 ps=1.973e-05 pd=2.011e-05 
+ nrs=0.22 nrd=0.23 
m111 28 68 27 0 nfet l=1.6e-06 w=1.12e-05 
+ as=2.842e-11 ad=2.791e-11 ps=2.011e-05 pd=1.973e-05 
+ nrs=0.23 nrd=0.22 
m112 28 70 27 0 nfet l=1.6e-06 w=1.12e-05 
+ as=2.842e-11 ad=2.791e-11 ps=2.011e-05 pd=1.973e-05 
+ nrs=0.23 nrd=0.22 
m113 27 70 28 0 nfet l=1.6e-06 w=1.12e-05 
+ as=2.791e-11 ad=2.842e-11 ps=1.973e-05 pd=2.011e-05 
+ nrs=0.22 nrd=0.23 
m114 28 70 27 0 nfet l=1.6e-06 w=1.12e-05 
+ as=2.842e-11 ad=2.791e-11 ps=2.011e-05 pd=1.973e-05 
+ nrs=0.23 nrd=0.22 
m115 28 72 27 0 nfet l=1.6e-06 w=1.12e-05 
+ as=2.842e-11 ad=2.791e-11 ps=2.011e-05 pd=1.973e-05 
+ nrs=0.23 nrd=0.22 
m116 27 72 28 0 nfet l=1.6e-06 w=1.12e-05 
+ as=2.791e-11 ad=2.842e-11 ps=1.973e-05 pd=2.011e-05 
+ nrs=0.22 nrd=0.23 
m117 28 72 27 0 nfet l=1.6e-06 w=1.12e-05 
+ as=2.842e-11 ad=2.791e-11 ps=2.011e-05 pd=1.973e-05 
+ nrs=0.23 nrd=0.22 
m118 28 74 27 0 nfet l=1.6e-06 w=1.12e-05 
+ as=2.842e-11 ad=2.791e-11 ps=2.011e-05 pd=1.973e-05 
+ nrs=0.23 nrd=0.22 
m119 27 74 28 0 nfet l=1.6e-06 w=1.12e-05 
+ as=2.791e-11 ad=2.842e-11 ps=1.973e-05 pd=2.011e-05 
+ nrs=0.22 nrd=0.23 
m120 28 74 27 0 nfet l=1.6e-06 w=1.12e-05 
+ as=2.842e-11 ad=2.791e-11 ps=2.011e-05 pd=1.973e-05 
+ nrs=0.23 nrd=0.22 
m121 28 76 27 0 nfet l=1.6e-06 w=1.12e-05 
+ as=2.842e-11 ad=2.791e-11 ps=2.011e-05 pd=1.973e-05 
+ nrs=0.23 nrd=0.22 
m122 27 76 28 0 nfet l=1.6e-06 w=1.12e-05 
+ as=2.791e-11 ad=2.842e-11 ps=1.973e-05 pd=2.011e-05 
+ nrs=0.22 nrd=0.23 
m123 28 76 27 0 nfet l=1.6e-06 w=1.12e-05 
+ as=2.842e-11 ad=2.791e-11 ps=2.011e-05 pd=1.973e-05 
+ nrs=0.23 nrd=0.22 
m124 28 78 27 0 nfet l=1.6e-06 w=1.12e-05 
+ as=2.842e-11 ad=2.791e-11 ps=2.011e-05 pd=1.973e-05 
+ nrs=0.23 nrd=0.22 
m125 27 78 28 0 nfet l=1.6e-06 w=1.12e-05 
+ as=2.791e-11 ad=2.842e-11 ps=1.973e-05 pd=2.011e-05 
+ nrs=0.22 nrd=0.23 
m126 28 78 27 0 nfet l=1.6e-06 w=1.12e-05 
+ as=2.842e-11 ad=2.791e-11 ps=2.011e-05 pd=1.973e-05 
+ nrs=0.23 nrd=0.22 
m127 28 80 27 0 nfet l=1.6e-06 w=1.12e-05 
+ as=2.842e-11 ad=2.791e-11 ps=2.011e-05 pd=1.973e-05 
+ nrs=0.23 nrd=0.22 
m128 27 80 28 0 nfet l=1.6e-06 w=1.12e-05 
+ as=2.791e-11 ad=2.842e-11 ps=1.973e-05 pd=2.011e-05 
+ nrs=0.22 nrd=0.23 
m129 28 80 27 0 nfet l=1.6e-06 w=1.12e-05 
+ as=2.842e-11 ad=2.791e-11 ps=2.011e-05 pd=1.973e-05 
+ nrs=0.23 nrd=0.22 
m130 28 82 27 0 nfet l=1.6e-06 w=1.12e-05 
+ as=2.842e-11 ad=2.791e-11 ps=2.011e-05 pd=1.973e-05 
+ nrs=0.23 nrd=0.22 
m131 27 82 28 0 nfet l=1.6e-06 w=1.12e-05 
+ as=2.791e-11 ad=2.842e-11 ps=1.973e-05 pd=2.011e-05 
+ nrs=0.22 nrd=0.23 
m132 28 82 27 0 nfet l=1.6e-06 w=1.12e-05 
+ as=2.842e-11 ad=2.791e-11 ps=2.011e-05 pd=1.973e-05 
+ nrs=0.23 nrd=0.22 
m133 28 84 27 0 nfet l=1.6e-06 w=1.12e-05 
+ as=2.842e-11 ad=2.791e-11 ps=2.011e-05 pd=1.973e-05 
+ nrs=0.23 nrd=0.22 
m134 27 84 28 0 nfet l=1.6e-06 w=1.12e-05 
+ as=2.791e-11 ad=2.842e-11 ps=1.973e-05 pd=2.011e-05 
+ nrs=0.22 nrd=0.23 
m135 28 84 27 0 nfet l=1.6e-06 w=1.12e-05 
+ as=2.842e-11 ad=2.791e-11 ps=2.011e-05 pd=1.973e-05 
+ nrs=0.23 nrd=0.22 
m136 28 86 27 0 nfet l=1.6e-06 w=1.12e-05 
+ as=2.842e-11 ad=2.791e-11 ps=2.011e-05 pd=1.973e-05 
+ nrs=0.23 nrd=0.22 
m137 27 86 28 0 nfet l=1.6e-06 w=1.12e-05 
+ as=2.791e-11 ad=2.842e-11 ps=1.973e-05 pd=2.011e-05 
+ nrs=0.22 nrd=0.23 
m138 28 86 27 0 nfet l=1.6e-06 w=1.12e-05 
+ as=2.842e-11 ad=2.791e-11 ps=2.011e-05 pd=1.973e-05 
+ nrs=0.23 nrd=0.22 
m139 28 88 27 0 nfet l=1.6e-06 w=1.12e-05 
+ as=2.842e-11 ad=2.791e-11 ps=2.011e-05 pd=1.973e-05 
+ nrs=0.23 nrd=0.22 
m140 27 88 28 0 nfet l=1.6e-06 w=1.12e-05 
+ as=2.791e-11 ad=2.842e-11 ps=1.973e-05 pd=2.011e-05 
+ nrs=0.22 nrd=0.23 
m141 28 88 27 0 nfet l=1.6e-06 w=1.12e-05 
+ as=2.842e-11 ad=2.791e-11 ps=2.011e-05 pd=1.973e-05 
+ nrs=0.23 nrd=0.22 
m142 28 90 27 0 nfet l=1.6e-06 w=1.12e-05 
+ as=2.842e-11 ad=2.791e-11 ps=2.011e-05 pd=1.973e-05 
+ nrs=0.23 nrd=0.22 
m143 27 90 28 0 nfet l=1.6e-06 w=1.12e-05 
+ as=2.791e-11 ad=2.842e-11 ps=1.973e-05 pd=2.011e-05 
+ nrs=0.22 nrd=0.23 
m144 28 90 27 0 nfet l=1.6e-06 w=1.12e-05 
+ as=2.842e-11 ad=2.791e-11 ps=2.011e-05 pd=1.973e-05 
+ nrs=0.23 nrd=0.22 
m145 28 92 27 0 nfet l=1.6e-06 w=1.12e-05 
+ as=2.842e-11 ad=2.791e-11 ps=2.011e-05 pd=1.973e-05 
+ nrs=0.23 nrd=0.22 
m146 27 92 28 0 nfet l=1.6e-06 w=1.12e-05 
+ as=2.791e-11 ad=2.842e-11 ps=1.973e-05 pd=2.011e-05 
+ nrs=0.22 nrd=0.23 
m147 28 92 27 0 nfet l=1.6e-06 w=1.12e-05 
+ as=2.842e-11 ad=2.791e-11 ps=2.011e-05 pd=1.973e-05 
+ nrs=0.23 nrd=0.22 
m148 28 94 27 0 nfet l=1.6e-06 w=1.12e-05 
+ as=2.842e-11 ad=2.791e-11 ps=2.011e-05 pd=1.973e-05 
+ nrs=0.23 nrd=0.22 
m149 27 94 28 0 nfet l=1.6e-06 w=1.12e-05 
+ as=2.791e-11 ad=2.842e-11 ps=1.973e-05 pd=2.011e-05 
+ nrs=0.22 nrd=0.23 
m150 28 94 27 0 nfet l=1.6e-06 w=1.12e-05 
+ as=2.842e-11 ad=2.791e-11 ps=2.011e-05 pd=1.973e-05 
+ nrs=0.23 nrd=0.22 
m151 28 96 27 0 nfet l=1.6e-06 w=1.12e-05 
+ as=2.842e-11 ad=2.791e-11 ps=2.011e-05 pd=1.973e-05 
+ nrs=0.23 nrd=0.22 
m152 27 96 28 0 nfet l=1.6e-06 w=1.12e-05 
+ as=2.791e-11 ad=2.842e-11 ps=1.973e-05 pd=2.011e-05 
+ nrs=0.22 nrd=0.23 
m153 28 96 27 0 nfet l=1.6e-06 w=1.12e-05 
+ as=2.842e-11 ad=2.791e-11 ps=2.011e-05 pd=1.973e-05 
+ nrs=0.23 nrd=0.22 
m154 28 98 27 0 nfet l=1.6e-06 w=1.12e-05 
+ as=2.842e-11 ad=2.791e-11 ps=2.011e-05 pd=1.973e-05 
+ nrs=0.23 nrd=0.22 
m155 27 98 28 0 nfet l=1.6e-06 w=1.12e-05 
+ as=2.791e-11 ad=2.842e-11 ps=1.973e-05 pd=2.011e-05 
+ nrs=0.22 nrd=0.23 
m156 28 98 27 0 nfet l=1.6e-06 w=1.12e-05 
+ as=2.842e-11 ad=2.791e-11 ps=2.011e-05 pd=1.973e-05 
+ nrs=0.23 nrd=0.22 
m157 28 100 27 0 nfet l=1.6e-06 w=1.12e-05 
+ as=2.842e-11 ad=2.791e-11 ps=2.011e-05 pd=1.973e-05 
+ nrs=0.23 nrd=0.22 
m158 27 100 28 0 nfet l=1.6e-06 w=1.12e-05 
+ as=2.791e-11 ad=2.842e-11 ps=1.973e-05 pd=2.011e-05 
+ nrs=0.22 nrd=0.23 
m159 28 100 27 0 nfet l=1.6e-06 w=1.12e-05 
+ as=2.842e-11 ad=2.791e-11 ps=2.011e-05 pd=1.973e-05 
+ nrs=0.23 nrd=0.22 
m160 28 102 27 0 nfet l=1.6e-06 w=1.12e-05 
+ as=2.842e-11 ad=2.791e-11 ps=2.011e-05 pd=1.973e-05 
+ nrs=0.23 nrd=0.22 
m161 27 102 28 0 nfet l=1.6e-06 w=1.12e-05 
+ as=2.791e-11 ad=2.842e-11 ps=1.973e-05 pd=2.011e-05 
+ nrs=0.22 nrd=0.23 
m162 28 102 27 0 nfet l=1.6e-06 w=1.12e-05 
+ as=2.842e-11 ad=2.791e-11 ps=2.011e-05 pd=1.973e-05 
+ nrs=0.23 nrd=0.22 
m163 28 104 27 0 nfet l=1.6e-06 w=1.12e-05 
+ as=2.842e-11 ad=2.791e-11 ps=2.011e-05 pd=1.973e-05 
+ nrs=0.23 nrd=0.22 
m164 27 104 28 0 nfet l=1.6e-06 w=1.12e-05 
+ as=2.791e-11 ad=2.842e-11 ps=1.973e-05 pd=2.011e-05 
+ nrs=0.22 nrd=0.23 
m165 28 104 27 0 nfet l=1.6e-06 w=1.12e-05 
+ as=2.842e-11 ad=2.791e-11 ps=2.011e-05 pd=1.973e-05 
+ nrs=0.23 nrd=0.22 
m166 28 106 27 0 nfet l=1.6e-06 w=1.12e-05 
+ as=2.842e-11 ad=2.791e-11 ps=2.011e-05 pd=1.973e-05 
+ nrs=0.23 nrd=0.22 
m167 27 106 28 0 nfet l=1.6e-06 w=1.12e-05 
+ as=2.791e-11 ad=2.842e-11 ps=1.973e-05 pd=2.011e-05 
+ nrs=0.22 nrd=0.23 
m168 28 106 27 0 nfet l=1.6e-06 w=1.12e-05 
+ as=2.842e-11 ad=2.791e-11 ps=2.011e-05 pd=1.973e-05 
+ nrs=0.23 nrd=0.22 
m169 28 108 27 0 nfet l=1.6e-06 w=1.12e-05 
+ as=2.842e-11 ad=2.791e-11 ps=2.011e-05 pd=1.973e-05 
+ nrs=0.23 nrd=0.22 
m170 27 108 28 0 nfet l=1.6e-06 w=1.12e-05 
+ as=2.791e-11 ad=2.842e-11 ps=1.973e-05 pd=2.011e-05 
+ nrs=0.22 nrd=0.23 
m171 28 108 27 0 nfet l=1.6e-06 w=1.12e-05 
+ as=2.842e-11 ad=2.791e-11 ps=2.011e-05 pd=1.973e-05 
+ nrs=0.23 nrd=0.22 
m172 109 37 173 0 nfet l=1.6e-06 w=6.8e-06 
+ as=4.08e-12 ad=2.514e-11 ps=8e-06 pd=2.143e-05 
+ nrs=0.09 nrd=0.54 
m173 173 110 0 0 nfet l=1.6e-06 w=6.8e-06 
+ as=1.3041e-10 ad=4.08e-12 ps=6.108e-05 pd=8e-06 
+ nrs=2.82 nrd=0.09 
m174 109 172 112 0 nfet l=1.6e-06 w=6.4e-06 
+ as=1.536e-11 ad=2.366e-11 ps=1.408e-05 pd=2.017e-05 
+ nrs=0.38 nrd=0.58 
m175 1 113 114 1 pfet l=1.6e-06 w=6.8e-06 
+ as=1.496e-11 ad=1.1937e-10 ps=1.12e-05 pd=5.193e-05 
+ nrs=0.32 nrd=2.58 
m176 114 115 1 1 pfet l=1.6e-06 w=6.8e-06 
+ as=1.1937e-10 ad=1.496e-11 ps=5.193e-05 pd=1.12e-05 
+ nrs=2.58 nrd=0.32 
m177 1 114 116 1 pfet l=1.6e-06 w=6.8e-06 
+ as=2.448e-11 ad=1.1937e-10 ps=2.339e-05 pd=5.193e-05 
+ nrs=0.53 nrd=2.58 
m178 1 116 117 1 pfet l=1.6e-06 w=6.8e-06 
+ as=1.677e-11 ad=1.1937e-10 ps=1.457e-05 pd=5.193e-05 
+ nrs=0.36 nrd=2.58 
m179 117 118 1 1 pfet l=1.6e-06 w=6.8e-06 
+ as=1.1937e-10 ad=1.677e-11 ps=5.193e-05 pd=1.457e-05 
+ nrs=2.58 nrd=0.36 
m180 112 109 172 0 nfet l=1.6e-06 w=6.4e-06 
+ as=2.366e-11 ad=1.536e-11 ps=2.017e-05 pd=1.408e-05 
+ nrs=0.58 nrd=0.38 
m181 172 111 0 0 nfet l=1.6e-06 w=6.8e-06 
+ as=1.3041e-10 ad=2.514e-11 ps=6.108e-05 pd=2.143e-05 
+ nrs=2.82 nrd=0.54 
m182 114 113 174 0 nfet l=1.6e-06 w=6.8e-06 
+ as=4.08e-12 ad=2.448e-11 ps=8e-06 pd=2.08e-05 
+ nrs=0.09 nrd=0.53 
m183 120 19 119 1 npfet l=1.6e-06 w=3.2e-06 
+ as=1.152e-11 ad=1.152e-11 ps=1.101e-05 pd=1.36e-05 
+ nrs=1.13 nrd=1.13 
m184 116 114 0 0 nfet l=1.6e-06 w=6.8e-06 
+ as=1.3041e-10 ad=2.448e-11 ps=6.108e-05 pd=2.339e-05 
+ nrs=2.82 nrd=0.53 
m185 117 116 175 0 nfet l=1.6e-06 w=6.8e-06 
+ as=4.08e-12 ad=2.448e-11 ps=8e-06 pd=2.339e-05 
+ nrs=0.09 nrd=0.53 
m186 174 115 0 0 nfet l=1.6e-06 w=6.8e-06 
+ as=1.3041e-10 ad=4.08e-12 ps=6.108e-05 pd=8e-06 
+ nrs=2.82 nrd=0.09 
m187 175 118 0 0 nfet l=1.6e-06 w=6.8e-06 
+ as=1.3041e-10 ad=4.08e-12 ps=6.108e-05 pd=8e-06 
+ nrs=2.82 nrd=0.09 
m188 120 15 119 0 nnfet l=1.6e-06 w=3.2e-06 
+ as=1.152e-11 ad=1.152e-11 ps=1.101e-05 pd=1.36e-05 
+ nrs=1.13 nrd=1.13 
m189 0 176 111 0 nfet l=1.6e-06 w=6.8e-06 
+ as=2.448e-11 ad=1.3041e-10 ps=2.08e-05 pd=6.108e-05 
+ nrs=0.53 nrd=2.82 
m190 1 6 27 1 pfet l=1.6e-06 w=2e-05 
+ as=4.473e-11 ad=3.5109e-10 ps=3.27e-05 pd=0.00015273 
+ nrs=0.11 nrd=0.88 
m191 27 15 176 0 nnfet l=1.6e-06 w=3.2e-06 
+ as=1.152e-11 ad=8.12e-12 ps=1.36e-05 pd=5.75e-06 
+ nrs=1.13 nrd=0.79 
m192 0 178 177 0 nfet l=1.6e-06 w=6.8e-06 
+ as=2.448e-11 ad=1.3041e-10 ps=2.339e-05 pd=6.108e-05 
+ nrs=0.53 nrd=2.82 
m193 0 111 179 0 nnfet l=1.6e-06 w=3.2e-06 
+ as=1.92e-12 ad=6.137e-11 ps=4.4e-06 pd=2.874e-05 
+ nrs=0.19 nrd=5.99 
m194 179 17 180 0 nnfet l=1.6e-06 w=3.2e-06 
+ as=8.11e-12 ad=1.92e-12 ps=9.33e-06 pd=4.4e-06 
+ nrs=0.79 nrd=0.19 
m195 0 37 180 0 nnfet l=1.6e-06 w=3.2e-06 
+ as=8.11e-12 ad=6.137e-11 ps=9.33e-06 pd=2.874e-05 
+ nrs=0.79 nrd=5.99 
m196 180 14 181 0 nnfet l=1.6e-06 w=3.2e-06 
+ as=6.4e-12 ad=8.11e-12 ps=7.2e-06 pd=9.33e-06 
+ nrs=0.63 nrd=0.79 
m197 181 4 178 0 nnfet l=1.6e-06 w=3.2e-06 
+ as=1.152e-11 ad=6.4e-12 ps=1.36e-05 pd=7.2e-06 
+ nrs=1.13 nrd=0.63 
m198 27 6 1 1 pfet l=1.6e-06 w=2e-05 
+ as=3.5109e-10 ad=4.473e-11 ps=0.00015273 pd=3.27e-05 
+ nrs=0.88 nrd=0.11 
m199 27 19 176 1 npfet l=1.6e-06 w=3.2e-06 
+ as=1.152e-11 ad=7.16e-12 ps=1.36e-05 pd=5.23e-06 
+ nrs=1.13 nrd=0.7 
m200 0 183 182 0 nnfet l=1.6e-06 w=4e-06 
+ as=2.336e-11 ad=7.671e-11 ps=2.08e-05 pd=3.593e-05 
+ nrs=1.46 nrd=4.79 
m201 0 182 37 0 nfet l=1.6e-06 w=6.8e-06 
+ as=2.448e-11 ad=1.3041e-10 ps=2.08e-05 pd=6.108e-05 
+ nrs=0.53 nrd=2.82 
m202 177 15 183 0 nnfet l=1.6e-06 w=3.2e-06 
+ as=1.152e-11 ad=1.152e-11 ps=1.36e-05 pd=1.101e-05 
+ nrs=1.13 nrd=1.13 
m203 0 185 184 0 nfet l=1.6e-06 w=6.8e-06 
+ as=2.1e-11 ad=1.3041e-10 ps=1.686e-05 pd=6.108e-05 
+ nrs=0.45 nrd=2.82 
m204 121 11 186 0 nnfet l=1.6e-06 w=3.2e-06 
+ as=8.11e-12 ad=1.152e-11 ps=9.33e-06 pd=1.164e-05 
+ nrs=0.79 nrd=1.13 
m205 186 14 110 0 nnfet l=1.6e-06 w=3.2e-06 
+ as=1.408e-11 ad=8.11e-12 ps=1.376e-05 pd=9.33e-06 
+ nrs=1.38 nrd=0.79 
m206 186 4 185 0 nnfet l=1.6e-06 w=3.2e-06 
+ as=1.152e-11 ad=8.11e-12 ps=1.36e-05 pd=9.33e-06 
+ nrs=1.13 nrd=0.79 
m207 0 187 110 0 nfet l=1.6e-06 w=4.8e-06 
+ as=2.112e-11 ad=9.206e-11 ps=2.064e-05 pd=4.311e-05 
+ nrs=0.92 nrd=4 
m208 184 15 187 0 nnfet l=1.6e-06 w=3.2e-06 
+ as=1.152e-11 ad=9.88e-12 ps=1.36e-05 pd=7.94e-06 
+ nrs=1.13 nrd=0.96 
m209 111 176 1 1 pfet l=1.6e-06 w=6.8e-06 
+ as=1.1937e-10 ad=2.448e-11 ps=5.193e-05 pd=2.08e-05 
+ nrs=2.58 nrd=0.53 
m210 1 111 188 1 pfet l=1.6e-06 w=4.8e-06 
+ as=1.216e-11 ad=8.426e-11 ps=1.147e-05 pd=3.666e-05 
+ nrs=0.53 nrd=3.66 
m211 188 17 1 1 pfet l=1.6e-06 w=4.8e-06 
+ as=8.426e-11 ad=1.216e-11 ps=3.666e-05 pd=1.147e-05 
+ nrs=3.66 nrd=0.53 
m212 188 37 181 1 pfet l=1.6e-06 w=4.8e-06 
+ as=1.344e-11 ad=1.216e-11 ps=1.29e-05 pd=1.147e-05 
+ nrs=0.58 nrd=0.53 
m213 1 14 181 1 pfet l=1.6e-06 w=4.8e-06 
+ as=1.344e-11 ad=8.426e-11 ps=1.29e-05 pd=3.666e-05 
+ nrs=0.58 nrd=3.66 
m214 181 6 178 1 npfet l=1.6e-06 w=3.2e-06 
+ as=1.152e-11 ad=8.96e-12 ps=1.36e-05 pd=8.6e-06 
+ nrs=1.13 nrd=0.88 
m215 177 19 183 1 npfet l=1.6e-06 w=3.2e-06 