Netlist to Test Xyce with RLC
*********************************************************************
* Tier No.:     1
* Description: Solution verfication circuit containing the linear
*              resistor, capacitor, and inductor models implemented
*              in Xyce.
* Creator:  Ben Long
*
* Input: VIN=10V DC
* Output: Current through V1
* Circuit Elements: R1, L1, C1
* Analysis:
*       The solution is the zero state response of the circuit below:
*       A DC voltage source in series with a 3 Ohm resistor,
*       a 1H inductor, and a .5F capacitor.  The measured output
*       is the current through the loop.
*
*        1___/\/\/\___2___ccccc__3
*        |       R1             L1   |
*        |      --> I                   ---
*       (V1)                       C1 ---
*        |                               |
*        |                               |
*        |_______________________|
*                       0
*
***********************************************************************
r1 1 2 3
l1 2 3 1
c1 3 0 .5
v1 1 0 1

* Note: the current has 1 subtracted from it to help with xyce_verify.
.print tran v(1)
.options timeint reltol=1.0e-3

* Analysis
.TRAN 0 2e-07
.OPTIONS OUTPUT outputtimepoints=0.000000e+00,7.014409e-08,7.750647e-08,8.185960e-08,8.496698e-08,8.738731e-08,8.937110e-08,9.105258e-08,9.251216e-08,9.380187e-08,9.495731e-08,9.600394e-08,9.696058e-08,9.784155e-08,9.865800e-08,9.941878e-08,1.001310e-07,1.008006e-07,1.014323e-07,1.020303e-07,1.025979e-07,1.031381e-07,1.036535e-07,1.041462e-07,1.046182e-07,1.050712e-07,1.055065e-07,1.059256e-07,1.063297e-07,1.067197e-07,1.070966e-07,1.074613e-07,1.078145e-07,1.081570e-07,1.084893e-07,1.088121e-07,1.091260e-07,1.094313e-07,1.097285e-07,1.100181e-07,1.103005e-07,1.105759e-07,1.108448e-07,1.111074e-07,1.113641e-07,1.116150e-07,1.118604e-07,1.121007e-07,1.123359e-07,1.125663e-07,1.127922e-07,1.130135e-07,1.132307e-07,1.134437e-07,1.136528e-07,1.138581e-07,1.140597e-07,1.142578e-07,1.144525e-07,1.146439e-07,1.148321e-07,1.150172e-07,1.151993e-07,1.153786e-07,1.155550e-07,1.157288e-07,1.158999e-07,1.160684e-07,1.162345e-07,1.163982e-07,1.165596e-07,1.167186e-07,1.168755e-07,1.170303e-07,1.171829e-07,1.173335e-07,1.174822e-07,1.176289e-07,1.177737e-07,1.179167e-07,1.180580e-07,1.181975e-07,1.183353e-07,1.184714e-07,1.186059e-07,1.187389e-07,1.188703e-07,1.190002e-07,1.191286e-07,1.192556e-07,1.193812e-07,1.195054e-07,1.196282e-07,1.197498e-07,1.198700e-07,1.199890e-07,1.201068e-07,1.202233e-07,1.203387e-07,1.204529e-07,1.205660e-07,1.206779e-07,1.207888e-07,1.208986e-07,1.210073e-07,1.211150e-07,1.212217e-07,1.213274e-07,1.214321e-07,1.215359e-07,1.216387e-07,1.217406e-07,1.218416e-07,1.219417e-07,1.220410e-07,1.221393e-07,1.222369e-07,1.223336e-07,1.224294e-07,1.225245e-07,1.226188e-07,1.227123e-07,1.228051e-07,1.228971e-07,1.229883e-07,1.230789e-07,1.231687e-07,1.232578e-07,1.233462e-07,1.234340e-07,1.235210e-07,1.236075e-07,1.236932e-07,1.237783e-07,1.238628e-07,1.239467e-07,1.240299e-07,1.241125e-07,1.241946e-07,1.242760e-07,1.243569e-07,1.244372e-07,1.245170e-07,1.245962e-07,1.246748e-07,1.247529e-07,1.248305e-07,1.249075e-07,1.249840e-07,1.250601e-07,1.251356e-07,1.252106e-07,1.252851e-07,1.253591e-07,1.254327e-07,1.255058e-07,1.255784e-07,1.256506e-07,1.257223e-07,1.257935e-07,1.258643e-07,1.259347e-07,1.260047e-07,1.260742e-07,1.261433e-07,1.262119e-07,1.262802e-07,1.263481e-07,1.264155e-07,1.264826e-07,1.265492e-07,1.266155e-07,1.266814e-07,1.267469e-07,1.268121e-07,1.268769e-07,1.269413e-07,1.270053e-07,1.270690e-07,1.271323e-07,1.271953e-07,1.272579e-07,1.273202e-07,1.273822e-07,1.274438e-07,1.275051e-07,1.275661e-07,1.276267e-07,1.276870e-07,1.277470e-07,1.278067e-07,1.278661e-07,1.279251e-07,1.279839e-07,1.280424e-07,1.281005e-07,1.281584e-07,1.282160e-07,1.282732e-07,1.283302e-07,1.283870e-07,1.284434e-07,1.284995e-07,1.285554e-07,1.286110e-07,1.286664e-07,1.287214e-07,1.287763e-07,1.288308e-07,1.288851e-07,1.289391e-07,1.289929e-07,1.290464e-07,1.290997e-07,1.291527e-07,1.292055e-07,1.292580e-07,1.293103e-07,1.293624e-07,1.294142e-07,1.294658e-07,1.295171e-07,1.295682e-07,1.296191e-07,1.296698e-07,1.297203e-07,1.297705e-07,1.298205e-07,1.298703e-07,1.299198e-07,1.299692e-07,1.300183e-07,1.300673e-07,1.301160e-07,1.301645e-07,1.302128e-07,1.302609e-07,1.303088e-07,1.303565e-07,1.304040e-07,1.304513e-07,1.304985e-07,1.305454e-07,1.305921e-07,1.306386e-07,1.306850e-07,1.307312e-07,1.307771e-07,1.308229e-07,1.308685e-07,1.309140e-07,1.309592e-07,1.310043e-07,1.310492e-07,1.310939e-07,1.311384e-07,1.311828e-07,1.312270e-07,1.312710e-07,1.313149e-07,1.313586e-07,1.314021e-07,1.314454e-07,1.314886e-07,1.315317e-07,1.315745e-07,1.316172e-07,1.316598e-07,1.317022e-07,1.317444e-07,1.317865e-07,1.318284e-07,1.318702e-07,1.319118e-07,1.319533e-07,1.319946e-07,1.320358e-07,1.320768e-07,1.321177e-07,1.321584e-07,1.321990e-07,1.322394e-07,1.322797e-07,1.323199e-07,1.323599e-07,1.323998e-07,1.324395e-07,1.324791e-07,1.325186e-07,1.325579e-07,1.325971e-07,1.326362e-07,1.326751e-07,1.327139e-07,1.327525e-07,1.327911e-07,1.328295e-07,1.328677e-07,1.329059e-07,1.329439e-07,1.329818e-07,1.330196e-07,1.330572e-07,1.330947e-07,1.331321e-07,1.331694e-07,1.332066e-07,1.332436e-07,1.332805e-07,1.333173e-07,1.333540e-07,1.333906e-07,1.334270e-07,1.334633e-07,1.334995e-07,1.335356e-07,1.335716e-07,1.336075e-07,1.336433e-07,1.336789e-07,1.337145e-07,1.337499e-07,1.337852e-07,1.338204e-07,1.338555e-07,1.338905e-07,1.339254e-07,1.339602e-07,1.339949e-07,1.340294e-07,1.340639e-07,1.340983e-07,1.341325e-07,1.341667e-07,1.342007e-07,1.342347e-07,1.342686e-07,1.343023e-07,1.343360e-07,1.343695e-07,1.344030e-07,1.344363e-07,1.344696e-07,1.345028e-07,1.345359e-07,1.345688e-07,1.346017e-07,1.346345e-07,1.346672e-07,1.346998e-07,1.347323e-07,1.347647e-07,1.347970e-07,1.348293e-07,1.348614e-07,1.348935e-07,1.349254e-07,1.349573e-07,1.349891e-07,1.350208e-07,1.350524e-07,1.350839e-07,1.351154e-07,1.351467e-07,1.351780e-07,1.352092e-07,1.352403e-07,1.352713e-07,1.353022e-07,1.353331e-07,1.353638e-07,1.353945e-07,1.354251e-07,1.354556e-07,1.354860e-07,1.355164e-07,1.355467e-07,1.355769e-07,1.356070e-07,1.356370e-07,1.356670e-07,1.356968e-07,1.357266e-07,1.357564e-07,1.357860e-07,1.358156e-07,1.358451e-07,1.358745e-07,1.359038e-07,1.359331e-07,1.359623e-07,1.359914e-07,1.360205e-07,1.360494e-07,1.360783e-07,1.361072e-07,1.361359e-07,1.361646e-07,1.361932e-07,1.362217e-07,1.362502e-07,1.362786e-07,1.363069e-07,1.363352e-07,1.363634e-07,1.363915e-07,1.364195e-07,1.364475e-07,1.364754e-07,1.365033e-07,1.365311e-07,1.365588e-07,1.365864e-07,1.366140e-07,1.366415e-07,1.366689e-07,1.366963e-07,1.367236e-07,1.367509e-07,1.367781e-07,1.368052e-07,1.368322e-07,1.368592e-07,1.368861e-07,1.369130e-07,1.369398e-07,1.369666e-07,1.369932e-07,1.370198e-07,1.370464e-07,1.370729e-07,1.370993e-07,1.371257e-07,1.371520e-07,1.371783e-07,1.372044e-07,1.372306e-07,1.372566e-07,1.372827e-07,1.373086e-07,1.373345e-07,1.373603e-07,1.373861e-07,1.374118e-07,1.374375e-07,1.374631e-07,1.374886e-07,1.375141e-07,1.375396e-07,1.375649e-07,1.375903e-07,1.376155e-07,1.376407e-07,1.376659e-07,1.376910e-07,1.377160e-07,1.377410e-07,1.377660e-07,1.377908e-07,1.378157e-07,1.378404e-07,1.378652e-07,1.378898e-07,1.379144e-07,1.379390e-07,1.379635e-07,1.379880e-07,1.380124e-07,1.380367e-07,1.380610e-07,1.380853e-07,1.381095e-07,1.381336e-07,1.381577e-07,1.381818e-07,1.382058e-07,1.382297e-07,1.382536e-07,1.382775e-07,1.383012e-07,1.383250e-07,1.383487e-07,1.383723e-07,1.383959e-07,1.384195e-07,1.384430e-07,1.384665e-07,1.384899e-07,1.385132e-07,1.385365e-07,1.385598e-07,1.385830e-07,1.386062e-07,1.386293e-07,1.386524e-07,1.386754e-07,1.386984e-07,1.387214e-07,1.387442e-07,1.387671e-07,1.387899e-07,1.388127e-07,1.388354e-07,1.388580e-07,1.388807e-07,1.389032e-07,1.389258e-07,1.389483e-07,1.389707e-07,1.389931e-07,1.390155e-07,1.390378e-07,1.390601e-07,1.390823e-07,1.391045e-07,1.391266e-07,1.391487e-07,1.391708e-07,1.391928e-07,1.392148e-07,1.392367e-07,1.392586e-07,1.392804e-07,1.393022e-07,1.393240e-07,1.393457e-07,1.393674e-07,1.393890e-07,1.394106e-07,1.394322e-07,1.394537e-07,1.394752e-07,1.394966e-07,1.395180e-07,1.395394e-07,1.395607e-07,1.395820e-07,1.396032e-07,1.396244e-07,1.396456e-07,1.396667e-07,1.396878e-07,1.397088e-07,1.397299e-07,1.397508e-07,1.397718e-07,1.397926e-07,1.398135e-07,1.398343e-07,1.398551e-07,1.398758e-07,1.398965e-07,1.399172e-07,1.399378e-07,1.399584e-07,1.399790e-07,1.399995e-07,1.400200e-07,1.400404e-07,1.400608e-07,1.400812e-07,1.401016e-07,1.401219e-07,1.401421e-07,1.401623e-07,1.401825e-07,1.402027e-07,1.402228e-07,1.402429e-07,1.402630e-07,1.402830e-07,1.403030e-07,1.403229e-07,1.403428e-07,1.403627e-07,1.403825e-07,1.404024e-07,1.404221e-07,1.404419e-07,1.404616e-07,1.404813e-07,1.405009e-07,1.405205e-07,1.405401e-07,1.405596e-07,1.405791e-07,1.405986e-07,1.406180e-07,1.406374e-07,1.406568e-07,1.406762e-07,1.406955e-07,1.407148e-07,1.407340e-07,1.407532e-07,1.407724e-07,1.407915e-07,1.408107e-07,1.408297e-07,1.408488e-07,1.408678e-07,1.408868e-07,1.409058e-07,1.409247e-07,1.409436e-07,1.409625e-07,1.409813e-07,1.410001e-07,1.410189e-07,1.410376e-07,1.410563e-07,1.410750e-07,1.410937e-07,1.411123e-07,1.411309e-07,1.411494e-07,1.411680e-07,1.411865e-07,1.412049e-07,1.412234e-07,1.412418e-07,1.412602e-07,1.412785e-07,1.412969e-07,1.413151e-07,1.413334e-07,1.413517e-07,1.413699e-07,1.413880e-07,1.414062e-07,1.414243e-07,1.414424e-07,1.414605e-07,1.414785e-07,1.414965e-07,1.415145e-07,1.415324e-07,1.415504e-07,1.415683e-07,1.415861e-07,1.416040e-07,1.416218e-07,1.416396e-07,1.416573e-07,1.416751e-07,1.416928e-07,1.417104e-07,1.417281e-07,1.417457e-07,1.417633e-07,1.417809e-07,1.417984e-07,1.418159e-07,1.418334e-07,1.418509e-07,1.418683e-07,1.418857e-07,1.419031e-07,1.419204e-07,1.419378e-07,1.419551e-07,1.419723e-07,1.419896e-07,1.420068e-07,1.420240e-07,1.420412e-07,1.420583e-07,1.420755e-07,1.420926e-07,1.421096e-07,1.421267e-07,1.421437e-07,1.421607e-07,1.421777e-07,1.421946e-07,1.422115e-07,1.422284e-07,1.422453e-07,1.422621e-07,1.422790e-07,1.422958e-07,1.423125e-07,1.423293e-07,1.423460e-07,1.423627e-07,1.423794e-07,1.423960e-07,1.424126e-07,1.424292e-07,1.424458e-07,1.424624e-07,1.424789e-07,1.424954e-07,1.425119e-07,1.425284e-07,1.425448e-07,1.425612e-07,1.425776e-07,1.425940e-07,1.426103e-07,1.426266e-07,1.426429e-07,1.426592e-07,1.426754e-07,1.426917e-07,1.427079e-07,1.427241e-07,1.427402e-07,1.427563e-07,1.427725e-07,1.427886e-07,1.428046e-07,1.428207e-07,1.428367e-07,1.428527e-07,1.428687e-07,1.428846e-07,1.429006e-07,1.429165e-07,1.429324e-07,1.429482e-07,1.429641e-07,1.429799e-07,1.429957e-07,1.430115e-07,1.430272e-07,1.430430e-07,1.430587e-07,1.430744e-07,1.430901e-07,1.431057e-07,1.431214e-07,1.431370e-07,1.431525e-07,1.431681e-07,1.431837e-07,1.431992e-07,1.432147e-07,1.432302e-07,1.432456e-07,1.432611e-07,1.432765e-07,1.432919e-07,1.433073e-07,1.433226e-07,1.433380e-07,1.433533e-07,1.433686e-07,1.433839e-07,1.433991e-07,1.434144e-07,1.434296e-07,1.434448e-07,1.434600e-07,1.434751e-07,1.434903e-07,1.435054e-07,1.435205e-07,1.435355e-07,1.435506e-07,1.435656e-07,1.435807e-07,1.435957e-07,1.436106e-07,1.436256e-07,1.436405e-07,1.436555e-07,1.436704e-07,1.436852e-07,1.437001e-07,1.437149e-07,1.437298e-07,1.437446e-07,1.437594e-07,1.437741e-07,1.437889e-07,1.438036e-07,1.438183e-07,1.438330e-07,1.438477e-07,1.438623e-07,1.438770e-07,1.438916e-07,1.439062e-07,1.439208e-07,1.439353e-07,1.439499e-07,1.439644e-07,1.439789e-07,1.439934e-07,1.440079e-07,1.440223e-07,1.440367e-07,1.440512e-07,1.440656e-07,1.440799e-07,1.440943e-07,1.441086e-07,1.441230e-07,1.441373e-07,1.441516e-07,1.441658e-07,1.441801e-07,1.441943e-07,1.442086e-07,1.442228e-07,1.442369e-07,1.442511e-07,1.442653e-07,1.442794e-07,1.442935e-07,1.443076e-07,1.443217e-07,1.443357e-07,1.443498e-07,1.443638e-07,1.443778e-07,1.443918e-07,1.444058e-07,1.444198e-07,1.444337e-07,1.444476e-07,1.444615e-07,1.444754e-07,1.444893e-07,1.445032e-07,1.445170e-07,1.445308e-07,1.445446e-07,1.445584e-07,1.445722e-07,1.445860e-07,1.445997e-07,1.446134e-07,1.446272e-07,1.446409e-07,1.446545e-07,1.446682e-07,1.446818e-07,1.446955e-07,1.447091e-07,1.447227e-07,1.447363e-07,1.447498e-07,1.447634e-07,1.447769e-07,1.447904e-07,1.448039e-07,1.448174e-07,1.448309e-07,1.448443e-07,1.448578e-07,1.448712e-07,1.448846e-07,1.448980e-07,1.449114e-07,1.449247e-07,1.449381e-07,1.449514e-07,1.449647e-07,1.449780e-07,1.449913e-07,1.450046e-07,1.450178e-07,1.450311e-07,1.450443e-07,1.450575e-07,1.450707e-07,1.450839e-07,1.450970e-07,1.451102e-07,1.451233e-07,1.451364e-07,1.451495e-07,1.451626e-07,1.451757e-07,1.451887e-07,1.452018e-07,1.452148e-07,1.452278e-07,1.452408e-07,1.452538e-07,1.452668e-07,1.452797e-07,1.452927e-07,1.453056e-07,1.453185e-07,1.453314e-07,1.453443e-07,1.453571e-07,1.453700e-07,1.453828e-07,1.453957e-07,1.454085e-07,1.454213e-07,1.454340e-07,1.454468e-07,1.454596e-07,1.454723e-07,1.454850e-07,1.454977e-07,1.455104e-07,1.455231e-07,1.455358e-07,1.455484e-07,1.455611e-07,1.455737e-07,1.455863e-07,1.455989e-07,1.456115e-07,1.456241e-07,1.456366e-07,1.456492e-07,1.456617e-07,1.456742e-07,1.456867e-07,1.456992e-07,1.457117e-07,1.457242e-07,1.457366e-07,1.457490e-07,1.457615e-07,1.457739e-07,1.457863e-07,1.457987e-07,1.458110e-07,1.458234e-07,1.458357e-07,1.458480e-07,1.458604e-07,1.458727e-07,1.458850e-07,1.458972e-07,1.459095e-07,1.459217e-07,1.459340e-07,1.459462e-07,1.459584e-07,1.459706e-07,1.459828e-07,1.459950e-07,1.460071e-07,1.460193e-07,1.460314e-07,1.460435e-07,1.460557e-07,1.460677e-07,1.460798e-07,1.460919e-07,1.461040e-07,1.461160e-07,1.461280e-07,1.461401e-07,1.461521e-07,1.461641e-07,1.461760e-07,1.461880e-07,1.462000e-07,1.462119e-07,1.462238e-07,1.462358e-07,1.462477e-07,1.462596e-07,1.462715e-07,1.462833e-07,1.462952e-07,1.463070e-07,1.463189e-07,1.463307e-07,1.463425e-07,1.463543e-07,1.463661e-07,1.463779e-07,1.463896e-07,1.464014e-07,1.464131e-07,1.464248e-07,1.464366e-07,1.464483e-07,1.464599e-07,1.464716e-07,1.464833e-07,1.464949e-07,1.465066e-07,1.465182e-07,1.465298e-07,1.465415e-07,1.465530e-07,1.465646e-07,1.465762e-07,1.465878e-07,1.465993e-07,1.466109e-07,1.466224e-07,1.466339e-07,1.466454e-07,1.466569e-07,1.466684e-07,1.466798e-07,1.466913e-07,1.467027e-07,1.467142e-07,1.467256e-07,1.467370e-07,1.467484e-07,1.467598e-07,1.467712e-07,1.467826e-07,1.467939e-07,1.468053e-07,1.468166e-07,1.468279e-07,1.468392e-07,1.468505e-07,1.468618e-07,1.468731e-07,1.468844e-07,1.468956e-07,1.469069e-07,1.469181e-07,1.469293e-07,1.469405e-07,1.469517e-07,1.469629e-07,1.469741e-07,1.469853e-07,1.469964e-07,1.470076e-07,1.470187e-07,1.470298e-07,1.470410e-07,1.470521e-07,1.470631e-07,1.470742e-07,1.470853e-07,1.470964e-07,1.471074e-07,1.471185e-07,1.471295e-07,1.471405e-07,1.471515e-07,1.471625e-07,1.471735e-07,1.471845e-07,1.471954e-07,1.472064e-07,1.472173e-07,1.472283e-07,1.472392e-07,1.472501e-07,1.472610e-07,1.472719e-07,1.472828e-07,1.472937e-07,1.473045e-07,1.473154e-07,1.473262e-07,1.473371e-07,1.473479e-07,1.473587e-07,1.473695e-07,1.473803e-07,1.473911e-07,1.474018e-07,1.474126e-07,1.474234e-07,1.474341e-07,1.474448e-07,1.474556e-07,1.474663e-07,1.474770e-07,1.474877e-07,1.474983e-07,1.475090e-07,1.475197e-07,1.475303e-07,1.475410e-07,1.475516e-07,1.475622e-07,1.475728e-07,1.475834e-07,1.475940e-07,1.476046e-07,1.476152e-07,1.476258e-07,1.476363e-07,1.476469e-07,1.476574e-07,1.476679e-07,1.476784e-07,1.476889e-07,1.476994e-07,1.477099e-07,1.477204e-07,1.477309e-07,1.477413e-07,1.477518e-07,1.477622e-07,1.477726e-07,1.477831e-07,1.477935e-07,1.478039e-07,1.478143e-07,1.478247e-07,1.478350e-07,1.478454e-07,1.478557e-07,1.478661e-07,1.478764e-07,1.478868e-07,1.478971e-07,1.479074e-07,1.479177e-07,1.479280e-07,1.479383e-07,1.479485e-07,1.479588e-07,1.479690e-07,1.479793e-07,1.479895e-07,1.479998e-07,1.480100e-07,1.480202e-07,1.480304e-07,1.480406e-07,1.480507e-07,1.480609e-07,1.480711e-07,1.480812e-07,1.480914e-07,1.481015e-07,1.481116e-07,1.481218e-07,1.481319e-07,1.481420e-07,1.481521e-07,1.481622e-07,1.481722e-07,1.481823e-07,1.481924e-07,1.482024e-07,1.482124e-07,1.482225e-07,1.482325e-07,1.482425e-07,1.482525e-07,1.482625e-07,1.482725e-07,1.482825e-07,1.482924e-07,1.483024e-07,1.483124e-07,1.483223e-07,1.483322e-07,1.483422e-07,1.483521e-07,1.483620e-07,1.483719e-07,1.483818e-07,1.483917e-07,1.484015e-07,1.484114e-07,1.484213e-07,1.484311e-07,1.484410e-07,1.484508e-07,1.484606e-07,1.484704e-07,1.484802e-07,1.484900e-07,1.484998e-07,1.485096e-07,1.485194e-07,1.485292e-07,1.485389e-07,1.485487e-07,1.485584e-07,1.485681e-07,1.485779e-07,1.485876e-07,1.485973e-07,1.486070e-07,1.486167e-07,1.486264e-07,1.486361e-07,1.486457e-07,1.486554e-07,1.486650e-07,1.486747e-07,1.486843e-07,1.486939e-07,1.487036e-07,1.487132e-07,1.487228e-07,1.487324e-07,1.487420e-07,1.487515e-07,1.487611e-07,1.487707e-07,1.487802e-07,1.487898e-07,1.487993e-07,1.488089e-07,1.488184e-07,1.488279e-07,1.488374e-07,1.488469e-07,1.488564e-07,1.488659e-07,1.488754e-07,1.488848e-07,1.488943e-07,1.489038e-07,1.489132e-07,1.489226e-07,1.489321e-07,1.489415e-07,1.489509e-07,1.489603e-07,1.489697e-07,1.489791e-07,1.489885e-07,1.489979e-07,1.490072e-07,1.490166e-07,1.490260e-07,1.490353e-07,1.490446e-07,1.490540e-07,1.490633e-07,1.490726e-07,1.490819e-07,1.490912e-07,1.491005e-07,1.491098e-07,1.491191e-07,1.491284e-07,1.491376e-07,1.491469e-07,1.491561e-07,1.491654e-07,1.491746e-07,1.491838e-07,1.491931e-07,1.492023e-07,1.492115e-07,1.492207e-07,1.492299e-07,1.492390e-07,1.492482e-07,1.492574e-07,1.492665e-07,1.492757e-07,1.492848e-07,1.492940e-07,1.493031e-07,1.493122e-07,1.493214e-07,1.493305e-07,1.493396e-07,1.493487e-07,1.493578e-07,1.493668e-07,1.493759e-07,1.493850e-07,1.493940e-07,1.494031e-07,1.494121e-07,1.494212e-07,1.494302e-07,1.494392e-07,1.494483e-07,1.494573e-07,1.494663e-07,1.494753e-07,1.494843e-07,1.494932e-07,1.495022e-07,1.495112e-07,1.495201e-07,1.495291e-07,1.495381e-07,1.495470e-07,1.495559e-07,1.495649e-07,1.495738e-07,1.495827e-07,1.495916e-07,1.496005e-07,1.496094e-07,1.496183e-07,1.496271e-07,1.496360e-07,1.496449e-07,1.496537e-07,1.496626e-07,1.496714e-07,1.496803e-07,1.496891e-07,1.496979e-07,1.497068e-07,1.497156e-07,1.497244e-07,1.497332e-07,1.497420e-07,1.497507e-07,1.497595e-07,1.497683e-07,1.497771e-07,1.497858e-07,1.497946e-07,1.498033e-07,1.498120e-07,1.498208e-07,1.498295e-07,1.498382e-07,1.498469e-07,1.498556e-07,1.498643e-07,1.498730e-07,1.498817e-07,1.498904e-07,1.498991e-07,1.499077e-07,1.499164e-07,1.499250e-07,1.499337e-07,1.499423e-07,1.499509e-07,1.499596e-07,1.499682e-07,1.499768e-07,1.499854e-07,1.499940e-07,1.500026e-07,1.500112e-07,1.500198e-07,1.500284e-07,1.500369e-07,1.500455e-07,1.500540e-07,1.500626e-07,1.500711e-07,1.500797e-07,1.500882e-07,1.500967e-07,1.501052e-07,1.501138e-07,1.501223e-07,1.501308e-07,1.501393e-07,1.501477e-07,1.501562e-07,1.501647e-07,1.501732e-07,1.501816e-07,1.501901e-07,1.501985e-07,1.502070e-07,1.502154e-07,1.502238e-07,1.502323e-07,1.502407e-07,1.502491e-07,1.502575e-07,1.502659e-07,1.502743e-07,1.502827e-07,1.502911e-07,1.502994e-07,1.503078e-07,1.503162e-07,1.503245e-07,1.503329e-07,1.503412e-07,1.503496e-07,1.503579e-07,1.503662e-07,1.503745e-07,1.503829e-07,1.503912e-07,1.503995e-07,1.504078e-07,1.504161e-07,1.504244e-07,1.504326e-07,1.504409e-07,1.504492e-07,1.504574e-07,1.504657e-07,1.504739e-07,1.504822e-07,1.504904e-07,1.504987e-07,1.505069e-07,1.505151e-07,1.505233e-07,1.505315e-07,1.505397e-07,1.505479e-07,1.505561e-07,1.505643e-07,1.505725e-07,1.505807e-07,1.505888e-07,1.505970e-07,1.506051e-07,1.506133e-07,1.506214e-07,1.506296e-07,1.506377e-07,1.506458e-07,1.506540e-07,1.506621e-07,1.506702e-07,1.506783e-07,1.506864e-07,1.506945e-07,1.507026e-07,1.507107e-07,1.507187e-07,1.507268e-07,1.507349e-07,1.507429e-07,1.507510e-07,1.507590e-07,1.507671e-07,1.507751e-07,1.507831e-07,1.507912e-07,1.507992e-07,1.508072e-07,1.508152e-07,1.508232e-07,1.508312e-07,1.508392e-07,1.508472e-07,1.508552e-07,1.508631e-07,1.508711e-07,1.508791e-07,1.508870e-07,1.508950e-07,1.509029e-07,1.509109e-07,1.509188e-07,1.509268e-07,1.509347e-07,1.509426e-07,1.509505e-07,1.509584e-07,1.509663e-07,1.509742e-07,1.509821e-07,1.509900e-07,1.509979e-07,1.510058e-07,1.510136e-07,1.510215e-07,1.510294e-07,1.510372e-07,1.510451e-07,1.510529e-07,1.510608e-07,1.510686e-07,1.510764e-07,1.510843e-07,1.510921e-07,1.510999e-07,1.511077e-07,1.511155e-07,1.511233e-07,1.511311e-07,1.511389e-07,1.511467e-07,1.511544e-07,1.511622e-07,1.511700e-07,1.511777e-07,1.511855e-07,1.511932e-07,1.512010e-07,1.512087e-07,1.512165e-07,1.512242e-07,1.512319e-07,1.512396e-07,1.512474e-07,1.512551e-07,1.512628e-07,1.512705e-07,1.512782e-07,1.512859e-07,1.512935e-07,1.513012e-07,1.513089e-07,1.513166e-07,1.513242e-07,1.513319e-07,1.513395e-07,1.513472e-07,1.513548e-07,1.513625e-07,1.513701e-07,1.513777e-07,1.513853e-07,1.513930e-07,1.514006e-07,1.514082e-07,1.514158e-07,1.514234e-07,1.514310e-07,1.514386e-07,1.514461e-07,1.514537e-07,1.514613e-07,1.514689e-07,1.514764e-07,1.514840e-07,1.514915e-07,1.514991e-07,1.515066e-07,1.515142e-07,1.515217e-07,1.515292e-07,1.515367e-07,1.515443e-07,1.515518e-07,1.515593e-07,1.515668e-07,1.515743e-07,1.515818e-07,1.515893e-07,1.515968e-07,1.516042e-07,1.516117e-07,1.516192e-07,1.516266e-07,1.516341e-07,1.516416e-07,1.516490e-07,1.516565e-07,1.516639e-07,1.516713e-07,1.516788e-07,1.516862e-07,1.516936e-07,1.517010e-07,1.517084e-07,1.517159e-07,1.517233e-07,1.517307e-07,1.517380e-07,1.517454e-07,1.517528e-07,1.517602e-07,1.517676e-07,1.517749e-07,1.517823e-07,1.517897e-07,1.517970e-07,1.518044e-07,1.518117e-07,1.518191e-07,1.518264e-07,1.518337e-07,1.518411e-07,1.518484e-07,1.518557e-07,1.518630e-07,1.518703e-07,1.518776e-07,1.518849e-07,1.518922e-07,1.518995e-07,1.519068e-07,1.519141e-07,1.519213e-07,1.519286e-07,1.519359e-07,1.519432e-07,1.519504e-07,1.519577e-07,1.519649e-07,1.519722e-07,1.519794e-07,1.519866e-07,1.519939e-07,1.520011e-07,1.520083e-07,1.520155e-07,1.520227e-07,1.520299e-07,1.520372e-07,1.520444e-07,1.520515e-07,1.520587e-07,1.520659e-07,1.520731e-07,1.520803e-07,1.520875e-07,1.520946e-07,1.521018e-07,1.521089e-07,1.521161e-07,1.521233e-07,1.521304e-07,1.521375e-07,1.521447e-07,1.521518e-07,1.521589e-07,1.521661e-07,1.521732e-07,1.521803e-07,1.521874e-07,1.521945e-07,1.522016e-07,1.522087e-07,1.522158e-07,1.522229e-07,1.522300e-07,1.522371e-07,1.522441e-07,1.522512e-07,1.522583e-07,1.522653e-07,1.522724e-07,1.522794e-07,1.522865e-07,1.522935e-07,1.523006e-07,1.523076e-07,1.523147e-07,1.523217e-07,1.523287e-07,1.523357e-07,1.523427e-07,1.523498e-07,1.523568e-07,1.523638e-07,1.523708e-07,1.523778e-07,1.523847e-07,1.523917e-07,1.523987e-07,1.524057e-07,1.524127e-07,1.524196e-07,1.524266e-07,1.524336e-07,1.524405e-07,1.524475e-07,1.524544e-07,1.524614e-07,1.524683e-07,1.524752e-07,1.524822e-07,1.524891e-07,1.524960e-07,1.525029e-07,1.525098e-07,1.525168e-07,1.525237e-07,1.525306e-07,1.525375e-07,1.525444e-07,1.525512e-07,1.525581e-07,1.525650e-07,1.525719e-07,1.525788e-07,1.525856e-07,1.525925e-07,1.525994e-07,1.526062e-07,1.526131e-07,1.526199e-07,1.526268e-07,1.526336e-07,1.526404e-07,1.526473e-07,1.526541e-07,1.526609e-07,1.526677e-07,1.526746e-07,1.526814e-07,1.526882e-07,1.526950e-07,1.527018e-07,1.527086e-07,1.527154e-07,1.527222e-07,1.527290e-07,1.527357e-07,1.527425e-07,1.527493e-07,1.527561e-07,1.527628e-07,1.527696e-07,1.527763e-07,1.527831e-07,1.527898e-07,1.527966e-07,1.528033e-07,1.528101e-07,1.528168e-07,1.528235e-07,1.528302e-07,1.528370e-07,1.528437e-07,1.528504e-07,1.528571e-07,1.528638e-07,1.528705e-07,1.528772e-07,1.528839e-07,1.528906e-07,1.528973e-07,1.529040e-07,1.529106e-07,1.529173e-07,1.529240e-07,1.529307e-07,1.529373e-07,1.529440e-07,1.529506e-07,1.529573e-07,1.529639e-07,1.529706e-07,1.529772e-07,1.529839e-07,1.529905e-07,1.529971e-07,1.530037e-07,1.530104e-07,1.530170e-07,1.530236e-07,1.530302e-07,1.530368e-07,1.530434e-07,1.530500e-07,1.530566e-07,1.530632e-07,1.530698e-07,1.530764e-07,1.530829e-07,1.530895e-07,1.530961e-07,1.531027e-07,1.531092e-07,1.531158e-07,1.531223e-07,1.531289e-07,1.531354e-07,1.531420e-07,1.531485e-07,1.531551e-07,1.531616e-07,1.531681e-07,1.531747e-07,1.531812e-07,1.531877e-07,1.531942e-07,1.532007e-07,1.532072e-07,1.532138e-07,1.532203e-07,1.532268e-07,1.532332e-07,1.532397e-07,1.532462e-07,1.532527e-07,1.532592e-07,1.532657e-07,1.532721e-07,1.532786e-07,1.532851e-07,1.532915e-07,1.532980e-07,1.533044e-07,1.533109e-07,1.533173e-07,1.533238e-07,1.533302e-07,1.533367e-07,1.533431e-07,1.533495e-07,1.533560e-07,1.533624e-07,1.533688e-07,1.533752e-07,1.533816e-07,1.533880e-07,1.533944e-07,1.534008e-07,1.534072e-07,1.534136e-07,1.534200e-07,1.534264e-07,1.534328e-07,1.534392e-07,1.534455e-07,1.534519e-07,1.534583e-07,1.534646e-07,1.534710e-07,1.534774e-07,1.534837e-07,1.534901e-07,1.534964e-07,1.535028e-07,1.535091e-07,1.535154e-07,1.535218e-07,1.535281e-07,1.535344e-07,1.535408e-07,1.535471e-07,1.535534e-07,1.535597e-07,1.535660e-07,1.535723e-07,1.535786e-07,1.535849e-07,1.535912e-07,1.535975e-07,1.536038e-07,1.536101e-07,1.536164e-07,1.536227e-07,1.536289e-07,1.536352e-07,1.536415e-07,1.536477e-07,1.536540e-07,1.536603e-07,1.536665e-07,1.536728e-07,1.536790e-07,1.536853e-07,1.536915e-07,1.536977e-07,1.537040e-07,1.537102e-07,1.537164e-07,1.537227e-07,1.537289e-07,1.537351e-07,1.537413e-07,1.537475e-07,1.537537e-07,1.537599e-07,1.537661e-07,1.537723e-07,1.537785e-07,1.537847e-07,1.537909e-07,1.537971e-07,1.538033e-07,1.538094e-07,1.538156e-07,1.538218e-07,1.538280e-07,1.538341e-07,1.538403e-07,1.538464e-07,1.538526e-07,1.538588e-07,1.538649e-07,1.538710e-07,1.538772e-07,1.538833e-07,1.538895e-07,1.538956e-07,1.539017e-07,1.539079e-07,1.539140e-07,1.539201e-07,1.539262e-07,1.539323e-07,1.539384e-07,1.539445e-07,1.539506e-07,1.539567e-07,1.539628e-07,1.539689e-07,1.539750e-07,1.539811e-07,1.539872e-07,1.539933e-07,1.539994e-07,1.540054e-07,1.540115e-07,1.540176e-07,1.540236e-07,1.540297e-07,1.540357e-07,1.540418e-07,1.540479e-07,1.540539e-07,1.540599e-07,1.540660e-07,1.540720e-07,1.540781e-07,1.540841e-07,1.540901e-07,1.540962e-07,1.541022e-07,1.541082e-07,1.541142e-07,1.541202e-07,1.541262e-07,1.541322e-07,1.541383e-07,1.541443e-07,1.541503e-07,1.541562e-07,1.541622e-07,1.541682e-07,1.541742e-07,1.541802e-07,1.541862e-07,1.541922e-07,1.541981e-07,1.542041e-07,1.542101e-07,1.542160e-07,1.542220e-07,1.542280e-07,1.542339e-07,1.542399e-07,1.542458e-07,1.542518e-07,1.542577e-07,1.542636e-07,1.542696e-07,1.542755e-07,1.542814e-07,1.542874e-07,1.542933e-07,1.542992e-07,1.543051e-07,1.543110e-07,1.543170e-07,1.543229e-07,1.543288e-07,1.543347e-07,1.543406e-07,1.543465e-07,1.543524e-07,1.543583e-07,1.543641e-07,1.543700e-07,1.543759e-07,1.543818e-07,1.543877e-07,1.543935e-07,1.543994e-07,1.544053e-07,1.544111e-07,1.544170e-07,1.544229e-07,1.544287e-07,1.544346e-07,1.544404e-07,1.544463e-07,1.544521e-07,1.544580e-07,1.544638e-07,1.544696e-07,1.544755e-07,1.544813e-07,1.544871e-07,1.544929e-07,1.544988e-07,1.545046e-07,1.545104e-07,1.545162e-07,1.545220e-07,1.545278e-07,1.545336e-07,1.545394e-07,1.545452e-07,1.545510e-07,1.545568e-07,1.545626e-07,1.545684e-07,1.545742e-07,1.545799e-07,1.545857e-07,1.545915e-07,1.545973e-07,1.546030e-07,1.546088e-07,1.546145e-07,1.546203e-07,1.546261e-07,1.546318e-07,1.546376e-07,1.546433e-07,1.546491e-07,1.546548e-07,1.546605e-07,1.546663e-07,1.546720e-07,1.546777e-07,1.546835e-07,1.546892e-07,1.546949e-07,1.547006e-07,1.547064e-07,1.547121e-07,1.547178e-07,1.547235e-07,1.547292e-07,1.547349e-07,1.547406e-07,1.547463e-07,1.547520e-07,1.547577e-07,1.547634e-07,1.547690e-07,1.547747e-07,1.547804e-07,1.547861e-07,1.547918e-07,1.547974e-07,1.548031e-07,1.548088e-07,1.548144e-07,1.548201e-07,1.548257e-07,1.548314e-07,1.548371e-07,1.548427e-07,1.548483e-07,1.548540e-07,1.548596e-07,1.548653e-07,1.548709e-07,1.548765e-07,1.548822e-07,1.548878e-07,1.548934e-07,1.548990e-07,1.549047e-07,1.549103e-07,1.549159e-07,1.549215e-07,1.549271e-07,1.549327e-07,1.549383e-07,1.549439e-07,1.549495e-07,1.549551e-07,1.549607e-07,1.549663e-07,1.549719e-07,1.549775e-07,1.549830e-07,1.549886e-07,1.549942e-07,1.549998e-07,1.550053e-07,1.550109e-07,1.550165e-07,1.550220e-07,1.550276e-07,1.550332e-07,1.550387e-07,1.550443e-07,1.550498e-07,1.550554e-07,1.550609e-07,1.550664e-07,1.550720e-07,1.550775e-07,1.550830e-07,1.550886e-07,1.550941e-07,1.550996e-07,1.551051e-07,1.551107e-07,1.551162e-07,1.551217e-07,1.551272e-07,1.551327e-07,1.551382e-07,1.551437e-07,1.551492e-07,1.551547e-07,1.551602e-07,1.551657e-07,1.551712e-07,1.551767e-07,1.551822e-07,1.551877e-07,1.551931e-07,1.551986e-07,1.552041e-07,1.552096e-07,1.552150e-07,1.552205e-07,1.552260e-07,1.552314e-07,1.552369e-07,1.552424e-07,1.552478e-07,1.552533e-07,1.552587e-07,1.552642e-07,1.552696e-07,1.552750e-07,1.552805e-07,1.552859e-07,1.552914e-07,1.552968e-07,1.553022e-07,1.553076e-07,1.553131e-07,1.553185e-07,1.553239e-07,1.553293e-07,1.553347e-07,1.553401e-07,1.553456e-07,1.553510e-07,1.553564e-07,1.553618e-07,1.553672e-07,1.553726e-07,1.553780e-07,1.553833e-07,1.553887e-07,1.553941e-07,1.553995e-07,1.554049e-07,1.554103e-07,1.554156e-07,1.554210e-07,1.554264e-07,1.554318e-07,1.554371e-07,1.554425e-07,1.554478e-07,1.554532e-07,1.554586e-07,1.554639e-07,1.554693e-07,1.554746e-07,1.554800e-07,1.554853e-07,1.554906e-07,1.554960e-07,1.555013e-07,1.555066e-07,1.555120e-07,1.555173e-07,1.555226e-07,1.555280e-07,1.555333e-07,1.555386e-07,1.555439e-07,1.555492e-07,1.555545e-07,1.555598e-07,1.555652e-07,1.555705e-07,1.555758e-07,1.555811e-07,1.555864e-07,1.555917e-07,1.555969e-07,1.556022e-07,1.556075e-07,1.556128e-07,1.556181e-07,1.556234e-07,1.556286e-07,1.556339e-07,1.556392e-07,1.556445e-07,1.556497e-07,1.556550e-07,1.556603e-07,1.556655e-07,1.556708e-07,1.556760e-07,1.556813e-07,1.556865e-07,1.556918e-07,1.556970e-07,1.557023e-07,1.557075e-07,1.557128e-07,1.557180e-07,1.557232e-07,1.557285e-07,1.557337e-07,1.557389e-07,1.557442e-07,1.557494e-07,1.557546e-07,1.557598e-07,1.557650e-07,1.557702e-07,1.557755e-07,1.557807e-07,1.557859e-07,1.557911e-07,1.557963e-07,1.558015e-07,1.558067e-07,1.55