// Generated for: spectre
// Generated on: Apr 18 11:04:12 2017
// Design library name: Pete_Lib3
// Design cell name: pwl_source
// Design view name: schematic
simulator lang=spectre
global 0
//include "/usr/local/cadence/ic-5.1.41usr5/tools/dfII/samples/artist/ahdlLib/quantity.spectre"

// Library name: Pete_Lib3
// Cell name: pwl_source
// View name: schematic
V1 (net08 0) vsource file="vpwlFile" type=pwl delay=1m
I5 (net010 0) isource file="ipwlFile" type=pwl delay=1m
I4 (net011 0) isource type=pwl delay=1m wave=[ 0 0.0 250u 1.0 \
        750u 1.0 1m 0.0 ]
V0 (net1 0) vsource type=pwl delay=1m wave=[ 0.0 0.0 250.0u \
        1.0 750u 1.0 1m 0.0 ]
R5 (net017 0) resistor r=1K
R4 (net08 net017) resistor r=1K
R3 (net010 0) resistor r=1K
R2 (net011 0) resistor r=1K
R1 (net4 0) resistor r=1K
R0 (net1 net4) resistor r=1K
simulatorOptions options reltol=1e-3 vabstol=1e-6 iabstol=1e-12 temp=27 \
    tnom=27 scalem=1.0 scale=1.0 gmin=1e-12 rforce=1 maxnotes=5 maxwarns=5 \
    digits=5 cols=80 pivrel=1e-3 sensfile="../psf/sens.output" \
    checklimitdest=psf 
tran tran stop=3e-3 write="spectre.ic" writefinal="spectre.fc" \
    annotate=status maxiters=5 
finalTimeOP info what=oppoint where=rawfile
modelParameter info what=models where=rawfile
element info what=inst where=rawfile
outputParameter info what=output where=rawfile
designParamVals info what=parameters where=rawfile
primitives info what=primitives where=rawfile
subckts info what=subckts  where=rawfile
save R3:1 R2:1 net017 net08 net4 net1
saveOptions options save=allpub



