**IC FUNCTIONAL EQUIVALENT = 1N3940
** TYPE:  DIODE
*** SUBTYPE:  RECTIFIER
***
*** THIS IS A TEMPERATURE TRACKING MODEL WHICH  WAS CONSTRUCTED FROM
*** PRODUCT SPECIFICATION LIMITS AND MEASUREMENTS MADE  ON ONE DEVICE.
*** THE MODEL IS INTENDED FOR USE FROM -55 C TO 125 C.  NO RADIATION
**EFFECTS
*** ARE INCLUDED.  SIMULATIONS USING THIS MODEL REPRESENT THE RESPONSES
**OF
*** NOMINAL DEVICES AND SIMULATIONS ARE ACCURATE WITHIN THE LIMITS OF
*THE
*** PRODUCT SPECIFICATION.
***
.MODEL D1N3940 D(
+         IS = 4E-10
+         RS = .105
+          N = 1.48
+         TT = 8E-7
+        CJO = 1.95E-11
+         VJ = .4
+          M = .38
+         EG = 1.36
+        XTI = -8
+         KF = 0
+         AF = 1
+         FC = .9
+         BV = 600
+        IBV = 1E-4
+ )
