cable simulation - rallpack 3 with 1000 level 1 neurons


.tran 0 0.25  
.options output initial_interval=5.0e-5
* I believe this is the options line Ting recommended - see 3/11/11 email from her
.options timeint method=7 newlte=1 newbpstepping=1 delmax=5e-5  
.options linsol type=klu


* rallpack 3 calls for a steady current input.  But we need to use PULSE so
* that the current will be off during dcop calculation
*   pulse( initial_value pulse_value delay_time rise_time fall_time pulse _width period)
Iin 0 in0 PULSE( 0 1.0e-10 1.0e-12 0.0 0.0 1.0e10 1.0e10)

* cable is 1mm long and 1 micron in diameter
* 1000 segments, each 1 micron long and 1 micron in diameter
.param nSeg = 1000
.param segLength = 1.0e-4     ; [cm]
.param segDiameter = 1.0e-4   ; [cm]
.param segSurfaceArea = { 3.14159 * segDiameter * segLength }

* specific membrane capacitance 1uF/cm^2 
.param memC = { 1.0e-6 * segSurfaceArea } ; [F]

* leak current has membrane resistivity of 40,000 ohm cm^2, with reversal potential of -65mV
.param rm = { 4.0e4 / segSurfaceArea }    ; [ohm]
.param memG = { 1 / rm }                  ; [1/ohm]
.param revE = -0.065                      ; [V]

* active conductances
* Na specific conductance is 1200 S/m^2 = 1.2e-1 S/cm^2
.param gnas = { 0.12 * segSurfaceArea }   ; [S]
.param ErevNa = 0.05                      ; [V]
* K specific conductance is 360 S/m^2 = 3.6e-2 S/cm^2
.param gks  = { 0.036 * segSurfaceArea }  ; [S]
.param ErevK = -0.077                     ; [V]

* neuron model
.model segParams neuron level=1 cMem={memC}  gMem={memG} eLeak={revE}  gNa={gnas}  gK={gks} eNa={ErevNa} eK={ErevK} vRest={revE}

* segments are connected by a resistor; axial resistance is 4*Ra*l/(pi*d^2); Ra for rallpack 1 is 100 ohm cm
* if segments were different, we'd want two resistors between each pair of segments to handle the differences, but here it doesnt' matter
.param Ra = 100.0
.param rInterSeg = { 4 * Ra * segLength / ( 3.14159 * segDiameter * segDiameter ) }

* here is how we define one neuron
* yneuron neuron1 in1 0 segParams

* loop below creates a resistor between each pair of neuron devices, which means one less resistor than compartments
* add a resistor with resistivity for half a compartment at each end of the cable
* this is the first one
R01 in0 in1 {rInterSeg/2.0} 
 
  
yneuron neuron1 in1 0 segParams
R12 in1 in2 {rInterSeg}
.ic v(in1) = -0.065
yneuron neuron2 in2 0 segParams
R23 in2 in3 {rInterSeg}
.ic v(in2) = -0.065
yneuron neuron3 in3 0 segParams
R34 in3 in4 {rInterSeg}
.ic v(in3) = -0.065
yneuron neuron4 in4 0 segParams
R45 in4 in5 {rInterSeg}
.ic v(in4) = -0.065
yneuron neuron5 in5 0 segParams
R56 in5 in6 {rInterSeg}
.ic v(in5) = -0.065
yneuron neuron6 in6 0 segParams
R67 in6 in7 {rInterSeg}
.ic v(in6) = -0.065
yneuron neuron7 in7 0 segParams
R78 in7 in8 {rInterSeg}
.ic v(in7) = -0.065
yneuron neuron8 in8 0 segParams
R89 in8 in9 {rInterSeg}
.ic v(in8) = -0.065
yneuron neuron9 in9 0 segParams
R910 in9 in10 {rInterSeg}
.ic v(in9) = -0.065
yneuron neuron10 in10 0 segParams
R1011 in10 in11 {rInterSeg}
.ic v(in10) = -0.065
yneuron neuron11 in11 0 segParams
R1112 in11 in12 {rInterSeg}
.ic v(in11) = -0.065
yneuron neuron12 in12 0 segParams
R1213 in12 in13 {rInterSeg}
.ic v(in12) = -0.065
yneuron neuron13 in13 0 segParams
R1314 in13 in14 {rInterSeg}
.ic v(in13) = -0.065
yneuron neuron14 in14 0 segParams
R1415 in14 in15 {rInterSeg}
.ic v(in14) = -0.065
yneuron neuron15 in15 0 segParams
R1516 in15 in16 {rInterSeg}
.ic v(in15) = -0.065
yneuron neuron16 in16 0 segParams
R1617 in16 in17 {rInterSeg}
.ic v(in16) = -0.065
yneuron neuron17 in17 0 segParams
R1718 in17 in18 {rInterSeg}
.ic v(in17) = -0.065
yneuron neuron18 in18 0 segParams
R1819 in18 in19 {rInterSeg}
.ic v(in18) = -0.065
yneuron neuron19 in19 0 segParams
R1920 in19 in20 {rInterSeg}
.ic v(in19) = -0.065
yneuron neuron20 in20 0 segParams
R2021 in20 in21 {rInterSeg}
.ic v(in20) = -0.065
yneuron neuron21 in21 0 segParams
R2122 in21 in22 {rInterSeg}
.ic v(in21) = -0.065
yneuron neuron22 in22 0 segParams
R2223 in22 in23 {rInterSeg}
.ic v(in22) = -0.065
yneuron neuron23 in23 0 segParams
R2324 in23 in24 {rInterSeg}
.ic v(in23) = -0.065
yneuron neuron24 in24 0 segParams
R2425 in24 in25 {rInterSeg}
.ic v(in24) = -0.065
yneuron neuron25 in25 0 segParams
R2526 in25 in26 {rInterSeg}
.ic v(in25) = -0.065
yneuron neuron26 in26 0 segParams
R2627 in26 in27 {rInterSeg}
.ic v(in26) = -0.065
yneuron neuron27 in27 0 segParams
R2728 in27 in28 {rInterSeg}
.ic v(in27) = -0.065
yneuron neuron28 in28 0 segParams
R2829 in28 in29 {rInterSeg}
.ic v(in28) = -0.065
yneuron neuron29 in29 0 segParams
R2930 in29 in30 {rInterSeg}
.ic v(in29) = -0.065
yneuron neuron30 in30 0 segParams
R3031 in30 in31 {rInterSeg}
.ic v(in30) = -0.065
yneuron neuron31 in31 0 segParams
R3132 in31 in32 {rInterSeg}
.ic v(in31) = -0.065
yneuron neuron32 in32 0 segParams
R3233 in32 in33 {rInterSeg}
.ic v(in32) = -0.065
yneuron neuron33 in33 0 segParams
R3334 in33 in34 {rInterSeg}
.ic v(in33) = -0.065
yneuron neuron34 in34 0 segParams
R3435 in34 in35 {rInterSeg}
.ic v(in34) = -0.065
yneuron neuron35 in35 0 segParams
R3536 in35 in36 {rInterSeg}
.ic v(in35) = -0.065
yneuron neuron36 in36 0 segParams
R3637 in36 in37 {rInterSeg}
.ic v(in36) = -0.065
yneuron neuron37 in37 0 segParams
R3738 in37 in38 {rInterSeg}
.ic v(in37) = -0.065
yneuron neuron38 in38 0 segParams
R3839 in38 in39 {rInterSeg}
.ic v(in38) = -0.065
yneuron neuron39 in39 0 segParams
R3940 in39 in40 {rInterSeg}
.ic v(in39) = -0.065
yneuron neuron40 in40 0 segParams
R4041 in40 in41 {rInterSeg}
.ic v(in40) = -0.065
yneuron neuron41 in41 0 segParams
R4142 in41 in42 {rInterSeg}
.ic v(in41) = -0.065
yneuron neuron42 in42 0 segParams
R4243 in42 in43 {rInterSeg}
.ic v(in42) = -0.065
yneuron neuron43 in43 0 segParams
R4344 in43 in44 {rInterSeg}
.ic v(in43) = -0.065
yneuron neuron44 in44 0 segParams
R4445 in44 in45 {rInterSeg}
.ic v(in44) = -0.065
yneuron neuron45 in45 0 segParams
R4546 in45 in46 {rInterSeg}
.ic v(in45) = -0.065
yneuron neuron46 in46 0 segParams
R4647 in46 in47 {rInterSeg}
.ic v(in46) = -0.065
yneuron neuron47 in47 0 segParams
R4748 in47 in48 {rInterSeg}
.ic v(in47) = -0.065
yneuron neuron48 in48 0 segParams
R4849 in48 in49 {rInterSeg}
.ic v(in48) = -0.065
yneuron neuron49 in49 0 segParams
R4950 in49 in50 {rInterSeg}
.ic v(in49) = -0.065
yneuron neuron50 in50 0 segParams
R5051 in50 in51 {rInterSeg}
.ic v(in50) = -0.065
yneuron neuron51 in51 0 segParams
R5152 in51 in52 {rInterSeg}
.ic v(in51) = -0.065
yneuron neuron52 in52 0 segParams
R5253 in52 in53 {rInterSeg}
.ic v(in52) = -0.065
yneuron neuron53 in53 0 segParams
R5354 in53 in54 {rInterSeg}
.ic v(in53) = -0.065
yneuron neuron54 in54 0 segParams
R5455 in54 in55 {rInterSeg}
.ic v(in54) = -0.065
yneuron neuron55 in55 0 segParams
R5556 in55 in56 {rInterSeg}
.ic v(in55) = -0.065
yneuron neuron56 in56 0 segParams
R5657 in56 in57 {rInterSeg}
.ic v(in56) = -0.065
yneuron neuron57 in57 0 segParams
R5758 in57 in58 {rInterSeg}
.ic v(in57) = -0.065
yneuron neuron58 in58 0 segParams
R5859 in58 in59 {rInterSeg}
.ic v(in58) = -0.065
yneuron neuron59 in59 0 segParams
R5960 in59 in60 {rInterSeg}
.ic v(in59) = -0.065
yneuron neuron60 in60 0 segParams
R6061 in60 in61 {rInterSeg}
.ic v(in60) = -0.065
yneuron neuron61 in61 0 segParams
R6162 in61 in62 {rInterSeg}
.ic v(in61) = -0.065
yneuron neuron62 in62 0 segParams
R6263 in62 in63 {rInterSeg}
.ic v(in62) = -0.065
yneuron neuron63 in63 0 segParams
R6364 in63 in64 {rInterSeg}
.ic v(in63) = -0.065
yneuron neuron64 in64 0 segParams
R6465 in64 in65 {rInterSeg}
.ic v(in64) = -0.065
yneuron neuron65 in65 0 segParams
R6566 in65 in66 {rInterSeg}
.ic v(in65) = -0.065
yneuron neuron66 in66 0 segParams
R6667 in66 in67 {rInterSeg}
.ic v(in66) = -0.065
yneuron neuron67 in67 0 segParams
R6768 in67 in68 {rInterSeg}
.ic v(in67) = -0.065
yneuron neuron68 in68 0 segParams
R6869 in68 in69 {rInterSeg}
.ic v(in68) = -0.065
yneuron neuron69 in69 0 segParams
R6970 in69 in70 {rInterSeg}
.ic v(in69) = -0.065
yneuron neuron70 in70 0 segParams
R7071 in70 in71 {rInterSeg}
.ic v(in70) = -0.065
yneuron neuron71 in71 0 segParams
R7172 in71 in72 {rInterSeg}
.ic v(in71) = -0.065
yneuron neuron72 in72 0 segParams
R7273 in72 in73 {rInterSeg}
.ic v(in72) = -0.065
yneuron neuron73 in73 0 segParams
R7374 in73 in74 {rInterSeg}
.ic v(in73) = -0.065
yneuron neuron74 in74 0 segParams
R7475 in74 in75 {rInterSeg}
.ic v(in74) = -0.065
yneuron neuron75 in75 0 segParams
R7576 in75 in76 {rInterSeg}
.ic v(in75) = -0.065
yneuron neuron76 in76 0 segParams
R7677 in76 in77 {rInterSeg}
.ic v(in76) = -0.065
yneuron neuron77 in77 0 segParams
R7778 in77 in78 {rInterSeg}
.ic v(in77) = -0.065
yneuron neuron78 in78 0 segParams
R7879 in78 in79 {rInterSeg}
.ic v(in78) = -0.065
yneuron neuron79 in79 0 segParams
R7980 in79 in80 {rInterSeg}
.ic v(in79) = -0.065
yneuron neuron80 in80 0 segParams
R8081 in80 in81 {rInterSeg}
.ic v(in80) = -0.065
yneuron neuron81 in81 0 segParams
R8182 in81 in82 {rInterSeg}
.ic v(in81) = -0.065
yneuron neuron82 in82 0 segParams
R8283 in82 in83 {rInterSeg}
.ic v(in82) = -0.065
yneuron neuron83 in83 0 segParams
R8384 in83 in84 {rInterSeg}
.ic v(in83) = -0.065
yneuron neuron84 in84 0 segParams
R8485 in84 in85 {rInterSeg}
.ic v(in84) = -0.065
yneuron neuron85 in85 0 segParams
R8586 in85 in86 {rInterSeg}
.ic v(in85) = -0.065
yneuron neuron86 in86 0 segParams
R8687 in86 in87 {rInterSeg}
.ic v(in86) = -0.065
yneuron neuron87 in87 0 segParams
R8788 in87 in88 {rInterSeg}
.ic v(in87) = -0.065
yneuron neuron88 in88 0 segParams
R8889 in88 in89 {rInterSeg}
.ic v(in88) = -0.065
yneuron neuron89 in89 0 segParams
R8990 in89 in90 {rInterSeg}
.ic v(in89) = -0.065
yneuron neuron90 in90 0 segParams
R9091 in90 in91 {rInterSeg}
.ic v(in90) = -0.065
yneuron neuron91 in91 0 segParams
R9192 in91 in92 {rInterSeg}
.ic v(in91) = -0.065
yneuron neuron92 in92 0 segParams
R9293 in92 in93 {rInterSeg}
.ic v(in92) = -0.065
yneuron neuron93 in93 0 segParams
R9394 in93 in94 {rInterSeg}
.ic v(in93) = -0.065
yneuron neuron94 in94 0 segParams
R9495 in94 in95 {rInterSeg}
.ic v(in94) = -0.065
yneuron neuron95 in95 0 segParams
R9596 in95 in96 {rInterSeg}
.ic v(in95) = -0.065
yneuron neuron96 in96 0 segParams
R9697 in96 in97 {rInterSeg}
.ic v(in96) = -0.065
yneuron neuron97 in97 0 segParams
R9798 in97 in98 {rInterSeg}
.ic v(in97) = -0.065
yneuron neuron98 in98 0 segParams
R9899 in98 in99 {rInterSeg}
.ic v(in98) = -0.065
yneuron neuron99 in99 0 segParams
R99100 in99 in100 {rInterSeg}
.ic v(in99) = -0.065
yneuron neuron100 in100 0 segParams
R100101 in100 in101 {rInterSeg}
.ic v(in100) = -0.065
yneuron neuron101 in101 0 segParams
R101102 in101 in102 {rInterSeg}
.ic v(in101) = -0.065
yneuron neuron102 in102 0 segParams
R102103 in102 in103 {rInterSeg}
.ic v(in102) = -0.065
yneuron neuron103 in103 0 segParams
R103104 in103 in104 {rInterSeg}
.ic v(in103) = -0.065
yneuron neuron104 in104 0 segParams
R104105 in104 in105 {rInterSeg}
.ic v(in104) = -0.065
yneuron neuron105 in105 0 segParams
R105106 in105 in106 {rInterSeg}
.ic v(in105) = -0.065
yneuron neuron106 in106 0 segParams
R106107 in106 in107 {rInterSeg}
.ic v(in106) = -0.065
yneuron neuron107 in107 0 segParams
R107108 in107 in108 {rInterSeg}
.ic v(in107) = -0.065
yneuron neuron108 in108 0 segParams
R108109 in108 in109 {rInterSeg}
.ic v(in108) = -0.065
yneuron neuron109 in109 0 segParams
R109110 in109 in110 {rInterSeg}
.ic v(in109) = -0.065
yneuron neuron110 in110 0 segParams
R110111 in110 in111 {rInterSeg}
.ic v(in110) = -0.065
yneuron neuron111 in111 0 segParams
R111112 in111 in112 {rInterSeg}
.ic v(in111) = -0.065
yneuron neuron112 in112 0 segParams
R112113 in112 in113 {rInterSeg}
.ic v(in112) = -0.065
yneuron neuron113 in113 0 segParams
R113114 in113 in114 {rInterSeg}
.ic v(in113) = -0.065
yneuron neuron114 in114 0 segParams
R114115 in114 in115 {rInterSeg}
.ic v(in114) = -0.065
yneuron neuron115 in115 0 segParams
R115116 in115 in116 {rInterSeg}
.ic v(in115) = -0.065
yneuron neuron116 in116 0 segParams
R116117 in116 in117 {rInterSeg}
.ic v(in116) = -0.065
yneuron neuron117 in117 0 segParams
R117118 in117 in118 {rInterSeg}
.ic v(in117) = -0.065
yneuron neuron118 in118 0 segParams
R118119 in118 in119 {rInterSeg}
.ic v(in118) = -0.065
yneuron neuron119 in119 0 segParams
R119120 in119 in120 {rInterSeg}
.ic v(in119) = -0.065
yneuron neuron120 in120 0 segParams
R120121 in120 in121 {rInterSeg}
.ic v(in120) = -0.065
yneuron neuron121 in121 0 segParams
R121122 in121 in122 {rInterSeg}
.ic v(in121) = -0.065
yneuron neuron122 in122 0 segParams
R122123 in122 in123 {rInterSeg}
.ic v(in122) = -0.065
yneuron neuron123 in123 0 segParams
R123124 in123 in124 {rInterSeg}
.ic v(in123) = -0.065
yneuron neuron124 in124 0 segParams
R124125 in124 in125 {rInterSeg}
.ic v(in124) = -0.065
yneuron neuron125 in125 0 segParams
R125126 in125 in126 {rInterSeg}
.ic v(in125) = -0.065
yneuron neuron126 in126 0 segParams
R126127 in126 in127 {rInterSeg}
.ic v(in126) = -0.065
yneuron neuron127 in127 0 segParams
R127128 in127 in128 {rInterSeg}
.ic v(in127) = -0.065
yneuron neuron128 in128 0 segParams
R128129 in128 in129 {rInterSeg}
.ic v(in128) = -0.065
yneuron neuron129 in129 0 segParams
R129130 in129 in130 {rInterSeg}
.ic v(in129) = -0.065
yneuron neuron130 in130 0 segParams
R130131 in130 in131 {rInterSeg}
.ic v(in130) = -0.065
yneuron neuron131 in131 0 segParams
R131132 in131 in132 {rInterSeg}
.ic v(in131) = -0.065
yneuron neuron132 in132 0 segParams
R132133 in132 in133 {rInterSeg}
.ic v(in132) = -0.065
yneuron neuron133 in133 0 segParams
R133134 in133 in134 {rInterSeg}
.ic v(in133) = -0.065
yneuron neuron134 in134 0 segParams
R134135 in134 in135 {rInterSeg}
.ic v(in134) = -0.065
yneuron neuron135 in135 0 segParams
R135136 in135 in136 {rInterSeg}
.ic v(in135) = -0.065
yneuron neuron136 in136 0 segParams
R136137 in136 in137 {rInterSeg}
.ic v(in136) = -0.065
yneuron neuron137 in137 0 segParams
R137138 in137 in138 {rInterSeg}
.ic v(in137) = -0.065
yneuron neuron138 in138 0 segParams
R138139 in138 in139 {rInterSeg}
.ic v(in138) = -0.065
yneuron neuron139 in139 0 segParams
R139140 in139 in140 {rInterSeg}
.ic v(in139) = -0.065
yneuron neuron140 in140 0 segParams
R140141 in140 in141 {rInterSeg}
.ic v(in140) = -0.065
yneuron neuron141 in141 0 segParams
R141142 in141 in142 {rInterSeg}
.ic v(in141) = -0.065
yneuron neuron142 in142 0 segParams
R142143 in142 in143 {rInterSeg}
.ic v(in142) = -0.065
yneuron neuron143 in143 0 segParams
R143144 in143 in144 {rInterSeg}
.ic v(in143) = -0.065
yneuron neuron144 in144 0 segParams
R144145 in144 in145 {rInterSeg}
.ic v(in144) = -0.065
yneuron neuron145 in145 0 segParams
R145146 in145 in146 {rInterSeg}
.ic v(in145) = -0.065
yneuron neuron146 in146 0 segParams
R146147 in146 in147 {rInterSeg}
.ic v(in146) = -0.065
yneuron neuron147 in147 0 segParams
R147148 in147 in148 {rInterSeg}
.ic v(in147) = -0.065
yneuron neuron148 in148 0 segParams
R148149 in148 in149 {rInterSeg}
.ic v(in148) = -0.065
yneuron neuron149 in149 0 segParams
R149150 in149 in150 {rInterSeg}
.ic v(in149) = -0.065
yneuron neuron150 in150 0 segParams
R150151 in150 in151 {rInterSeg}
.ic v(in150) = -0.065
yneuron neuron151 in151 0 segParams
R151152 in151 in152 {rInterSeg}
.ic v(in151) = -0.065
yneuron neuron152 in152 0 segParams
R152153 in152 in153 {rInterSeg}
.ic v(in152) = -0.065
yneuron neuron153 in153 0 segParams
R153154 in153 in154 {rInterSeg}
.ic v(in153) = -0.065
yneuron neuron154 in154 0 segParams
R154155 in154 in155 {rInterSeg}
.ic v(in154) = -0.065
yneuron neuron155 in155 0 segParams
R155156 in155 in156 {rInterSeg}
.ic v(in155) = -0.065
yneuron neuron156 in156 0 segParams
R156157 in156 in157 {rInterSeg}
.ic v(in156) = -0.065
yneuron neuron157 in157 0 segParams
R157158 in157 in158 {rInterSeg}
.ic v(in157) = -0.065
yneuron neuron158 in158 0 segParams
R158159 in158 in159 {rInterSeg}
.ic v(in158) = -0.065
yneuron neuron159 in159 0 segParams
R159160 in159 in160 {rInterSeg}
.ic v(in159) = -0.065
yneuron neuron160 in160 0 segParams
R160161 in160 in161 {rInterSeg}
.ic v(in160) = -0.065
yneuron neuron161 in161 0 segParams
R161162 in161 in162 {rInterSeg}
.ic v(in161) = -0.065
yneuron neuron162 in162 0 segParams
R162163 in162 in163 {rInterSeg}
.ic v(in162) = -0.065
yneuron neuron163 in163 0 segParams
R163164 in163 in164 {rInterSeg}
.ic v(in163) = -0.065
yneuron neuron164 in164 0 segParams
R164165 in164 in165 {rInterSeg}
.ic v(in164) = -0.065
yneuron neuron165 in165 0 segParams
R165166 in165 in166 {rInterSeg}
.ic v(in165) = -0.065
yneuron neuron166 in166 0 segParams
R166167 in166 in167 {rInterSeg}
.ic v(in166) = -0.065
yneuron neuron167 in167 0 segParams
R167168 in167 in168 {rInterSeg}
.ic v(in167) = -0.065
yneuron neuron168 in168 0 segParams
R168169 in168 in169 {rInterSeg}
.ic v(in168) = -0.065
yneuron neuron169 in169 0 segParams
R169170 in169 in170 {rInterSeg}
.ic v(in169) = -0.065
yneuron neuron170 in170 0 segParams
R170171 in170 in171 {rInterSeg}
.ic v(in170) = -0.065
yneuron neuron171 in171 0 segParams
R171172 in171 in172 {rInterSeg}
.ic v(in171) = -0.065
yneuron neuron172 in172 0 segParams
R172173 in172 in173 {rInterSeg}
.ic v(in172) = -0.065
yneuron neuron173 in173 0 segParams
R173174 in173 in174 {rInterSeg}
.ic v(in173) = -0.065
yneuron neuron174 in174 0 segParams
R174175 in174 in175 {rInterSeg}
.ic v(in174) = -0.065
yneuron neuron175 in175 0 segParams
R175176 in175 in176 {rInterSeg}
.ic v(in175) = -0.065
yneuron neuron176 in176 0 segParams
R176177 in176 in177 {rInterSeg}
.ic v(in176) = -0.065
yneuron neuron177 in177 0 segParams
R177178 in177 in178 {rInterSeg}
.ic v(in177) = -0.065
yneuron neuron178 in178 0 segParams
R178179 in178 in179 {rInterSeg}
.ic v(in178) = -0.065
yneuron neuron179 in179 0 segParams
R179180 in179 in180 {rInterSeg}
.ic v(in179) = -0.065
yneuron neuron180 in180 0 segParams
R180181 in180 in181 {rInterSeg}
.ic v(in180) = -0.065
yneuron neuron181 in181 0 segParams
R181182 in181 in182 {rInterSeg}
.ic v(in181) = -0.065
yneuron neuron182 in182 0 segParams
R182183 in182 in183 {rInterSeg}
.ic v(in182) = -0.065
yneuron neuron183 in183 0 segParams
R183184 in183 in184 {rInterSeg}
.ic v(in183) = -0.065
yneuron neuron184 in184 0 segParams
R184185 in184 in185 {rInterSeg}
.ic v(in184) = -0.065
yneuron neuron185 in185 0 segParams
R185186 in185 in186 {rInterSeg}
.ic v(in185) = -0.065
yneuron neuron186 in186 0 segParams
R186187 in186 in187 {rInterSeg}
.ic v(in186) = -0.065
yneuron neuron187 in187 0 segParams
R187188 in187 in188 {rInterSeg}
.ic v(in187) = -0.065
yneuron neuron188 in188 0 segParams
R188189 in188 in189 {rInterSeg}
.ic v(in188) = -0.065
yneuron neuron189 in189 0 segParams
R189190 in189 in190 {rInterSeg}
.ic v(in189) = -0.065
yneuron neuron190 in190 0 segParams
R190191 in190 in191 {rInterSeg}
.ic v(in190) = -0.065
yneuron neuron191 in191 0 segParams
R191192 in191 in192 {rInterSeg}
.ic v(in191) = -0.065
yneuron neuron192 in192 0 segParams
R192193 in192 in193 {rInterSeg}
.ic v(in192) = -0.065
yneuron neuron193 in193 0 segParams
R193194 in193 in194 {rInterSeg}
.ic v(in193) = -0.065
yneuron neuron194 in194 0 segParams
R194195 in194 in195 {rInterSeg}
.ic v(in194) = -0.065
yneuron neuron195 in195 0 segParams
R195196 in195 in196 {rInterSeg}
.ic v(in195) = -0.065
yneuron neuron196 in196 0 segParams
R196197 in196 in197 {rInterSeg}
.ic v(in196) = -0.065
yneuron neuron197 in197 0 segParams
R197198 in197 in198 {rInterSeg}
.ic v(in197) = -0.065
yneuron neuron198 in198 0 segParams
R198199 in198 in199 {rInterSeg}
.ic v(in198) = -0.065
yneuron neuron199 in199 0 segParams
R199200 in199 in200 {rInterSeg}
.ic v(in199) = -0.065
yneuron neuron200 in200 0 segParams
R200201 in200 in201 {rInterSeg}
.ic v(in200) = -0.065
yneuron neuron201 in201 0 segParams
R201202 in201 in202 {rInterSeg}
.ic v(in201) = -0.065
yneuron neuron202 in202 0 segParams
R202203 in202 in203 {rInterSeg}
.ic v(in202) = -0.065
yneuron neuron203 in203 0 segParams
R203204 in203 in204 {rInterSeg}
.ic v(in203) = -0.065
yneuron neuron204 in204 0 segParams
R204205 in204 in205 {rInterSeg}
.ic v(in204) = -0.065
yneuron neuron205 in205 0 segParams
R205206 in205 in206 {rInterSeg}
.ic v(in205) = -0.065
yneuron neuron206 in206 0 segParams
R206207 in206 in207 {rInterSeg}
.ic v(in206) = -0.065
yneuron neuron207 in207 0 segParams
R207208 in207 in208 {rInterSeg}
.ic v(in207) = -0.065
yneuron neuron208 in208 0 segParams
R208209 in208 in209 {rInterSeg}
.ic v(in208) = -0.065
yneuron neuron209 in209 0 segParams
R209210 in209 in210 {rInterSeg}
.ic v(in209) = -0.065
yneuron neuron210 in210 0 segParams
R210211 in210 in211 {rInterSeg}
.ic v(in210) = -0.065
yneuron neuron211 in211 0 segParams
R211212 in211 in212 {rInterSeg}
.ic v(in211) = -0.065
yneuron neuron212 in212 0 segParams
R212213 in212 in213 {rInterSeg}
.ic v(in212) = -0.065
yneuron neuron213 in213 0 segParams
R213214 in213 in214 {rInterSeg}
.ic v(in213) = -0.065
yneuron neuron214 in214 0 segParams
R214215 in214 in215 {rInterSeg}
.ic v(in214) = -0.065
yneuron neuron215 in215 0 segParams
R215216 in215 in216 {rInterSeg}
.ic v(in215) = -0.065
yneuron neuron216 in216 0 segParams
R216217 in216 in217 {rInterSeg}
.ic v(in216) = -0.065
yneuron neuron217 in217 0 segParams
R217218 in217 in218 {rInterSeg}
.ic v(in217) = -0.065
yneuron neuron218 in218 0 segParams
R218219 in218 in219 {rInterSeg}
.ic v(in218) = -0.065
yneuron neuron219 in219 0 segParams
R219220 in219 in220 {rInterSeg}
.ic v(in219) = -0.065
yneuron neuron220 in220 0 segParams
R220221 in220 in221 {rInterSeg}
.ic v(in220) = -0.065
yneuron neuron221 in221 0 segParams
R221222 in221 in222 {rInterSeg}
.ic v(in221) = -0.065
yneuron neuron222 in222 0 segParams
R222223 in222 in223 {rInterSeg}
.ic v(in222) = -0.065
yneuron neuron223 in223 0 segParams
R223224 in223 in224 {rInterSeg}
.ic v(in223) = -0.065
yneuron neuron224 in224 0 segParams
R224225 in224 in225 {rInterSeg}
.ic v(in224) = -0.065
yneuron neuron225 in225 0 segParams
R225226 in225 in226 {rInterSeg}
.ic v(in225) = -0.065
yneuron neuron226 in226 0 segParams
R226227 in226 in227 {rInterSeg}
.ic v(in226) = -0.065
yneuron neuron227 in227 0 segParams
R227228 in227 in228 {rInterSeg}
.ic v(in227) = -0.065
yneuron neuron228 in228 0 segParams
R228229 in228 in229 {rInterSeg}
.ic v(in228) = -0.065
yneuron neuron229 in229 0 segParams
R229230 in229 in230 {rInterSeg}
.ic v(in229) = -0.065
yneuron neuron230 in230 0 segParams
R230231 in230 in231 {rInterSeg}
.ic v(in230) = -0.065
yneuron neuron231 in231 0 segParams
R231232 in231 in232 {rInterSeg}
.ic v(in231) = -0.065
yneuron neuron232 in232 0 segParams
R232233 in232 in233 {rInterSeg}
.ic v(in232) = -0.065
yneuron neuron233 in233 0 segParams
R233234 in233 in234 {rInterSeg}
.ic v(in233) = -0.065
yneuron neuron234 in234 0 segParams
R234235 in234 in235 {rInterSeg}
.ic v(in234) = -0.065
yneuron neuron235 in235 0 segParams
R235236 in235 in236 {rInterSeg}
.ic v(in235) = -0.065
yneuron neuron236 in236 0 segParams
R236237 in236 in237 {rInterSeg}
.ic v(in236) = -0.065
yneuron neuron237 in237 0 segParams
R237238 in237 in238 {rInterSeg}
.ic v(in237) = -0.065
yneuron neuron238 in238 0 segParams
R238239 in238 in239 {rInterSeg}
.ic v(in238) = -0.065
yneuron neuron239 in239 0 segParams
R239240 in239 in240 {rInterSeg}
.ic v(in239) = -0.065
yneuron neuron240 in240 0 segParams
R240241 in240 in241 {rInterSeg}
.ic v(in240) = -0.065
yneuron neuron241 in241 0 segParams
R241242 in241 in242 {rInterSeg}
.ic v(in241) = -0.065
yneuron neuron242 in242 0 segParams
R242243 in242 in243 {rInterSeg}
.ic v(in242) = -0.065
yneuron neuron243 in243 0 segParams
R243244 in243 in244 {rInterSeg}
.ic v(in243) = -0.065
yneuron neuron244 in244 0 segParams
R244245 in244 in245 {rInterSeg}
.ic v(in244) = -0.065
yneuron neuron245 in245 0 segParams
R245246 in245 in246 {rInterSeg}
.ic v(in245) = -0.065
yneuron neuron246 in246 0 segParams
R246247 in246 in247 {rInterSeg}
.ic v(in246) = -0.065
yneuron neuron247 in247 0 segParams
R247248 in247 in248 {rInterSeg}
.ic v(in247) = -0.065
yneuron neuron248 in248 0 segParams
R248249 in248 in249 {rInterSeg}
.ic v(in248) = -0.065
yneuron neuron249 in249 0 segParams
R249250 in249 in250 {rInterSeg}
.ic v(in249) = -0.065
yneuron neuron250 in250 0 segParams
R250251 in250 in251 {rInterSeg}
.ic v(in250) = -0.065
yneuron neuron251 in251 0 segParams
R251252 in251 in252 {rInterSeg}
.ic v(in251) = -0.065
yneuron neuron252 in252 0 segParams
R252253 in252 in253 {rInterSeg}
.ic v(in252) = -0.065
yneuron neuron253 in253 0 segParams
R253254 in253 in254 {rInterSeg}
.ic v(in253) = -0.065
yneuron neuron254 in254 0 segParams
R254255 in254 in255 {rInterSeg}
.ic v(in254) = -0.065
yneuron neuron255 in255 0 segParams
R255256 in255 in256 {rInterSeg}
.ic v(in255) = -0.065
yneuron neuron256 in256 0 segParams
R256257 in256 in257 {rInterSeg}
.ic v(in256) = -0.065
yneuron neuron257 in257 0 segParams
R257258 in257 in258 {rInterSeg}
.ic v(in257) = -0.065
yneuron neuron258 in258 0 segParams
R258259 in258 in259 {rInterSeg}
.ic v(in258) = -0.065
yneuron neuron259 in259 0 segParams
R259260 in259 in260 {rInterSeg}
.ic v(in259) = -0.065
yneuron neuron260 in260 0 segParams
R260261 in260 in261 {rInterSeg}
.ic v(in260) = -0.065
yneuron neuron261 in261 0 segParams
R261262 in261 in262 {rInterSeg}
.ic v(in261) = -0.065
yneuron neuron262 in262 0 segParams
R262263 in262 in263 {rInterSeg}
.ic v(in262) = -0.065
yneuron neuron263 in263 0 segParams
R263264 in263 in264 {rInterSeg}
.ic v(in263) = -0.065
yneuron neuron264 in264 0 segParams
R264265 in264 in265 {rInterSeg}
.ic v(in264) = -0.065
yneuron neuron265 in265 0 segParams
R265266 in265 in266 {rInterSeg}
.ic v(in265) = -0.065
yneuron neuron266 in266 0 segParams
R266267 in266 in267 {rInterSeg}
.ic v(in266) = -0.065
yneuron neuron267 in267 0 segParams
R267268 in267 in268 {rInterSeg}
.ic v(in267) = -0.065
yneuron neuron268 in268 0 segParams
R268269 in268 in269 {rInterSeg}
.ic v(in268) = -0.065
yneuron neuron269 in269 0 segParams
R269270 in269 in270 {rInterSeg}
.ic v(in269) = -0.065
yneuron neuron270 in270 0 segParams
R270271 in270 in271 {rInterSeg}
.ic v(in270) = -0.065
yneuron neuron271 in271 0 segParams
R271272 in271 in272 {rInterSeg}
.ic v(in271) = -0.065
yneuron neuron272 in272 0 segParams
R272273 in272 in273 {rInterSeg}
.ic v(in272) = -0.065
yneuron neuron273 in273 0 segParams
R273274 in273 in274 {rInterSeg}
.ic v(in273) = -0.065
yneuron neuron274 in274 0 segParams
R274275 in274 in275 {rInterSeg}
.ic v(in274) = -0.065
yneuron neuron275 in275 0 segParams
R275276 in275 in276 {rInterSeg}
.ic v(in275) = -0.065
yneuron neuron276 in276 0 segParams
R276277 in276 in277 {rInterSeg}
.ic v(in276) = -0.065
yneuron neuron277 in277 0 segParams
R277278 in277 in278 {rInterSeg}
.ic v(in277) = -0.065
yneuron neuron278 in278 0 segParams
R278279 in278 in279 {rInterSeg}
.ic v(in278) = -0.065
yneuron neuron279 in279 0 segParams
R279280 in279 in280 {rInterSeg}
.ic v(in279) = -0.065
yneuron neuron280 in280 0 segParams
R280281 in280 in281 {rInterSeg}
.ic v(in280) = -0.065
yneuron neuron281 in281 0 segParams
R281282 in281 in282 {rInterSeg}
.ic v(in281) = -0.065
yneuron neuron282 in282 0 segParams
R282283 in282 in283 {rInterSeg}
.ic v(in282) = -0.065
yneuron neuron283 in283 0 segParams
R283284 in283 in284 {rInterSeg}
.ic v(in283) = -0.065
yneuron neuron284 in284 0 segParams
R284285 in284 in285 {rInterSeg}
.ic v(in284) = -0.065
yneuron neuron285 in285 0 segParams
R285286 in285 in286 {rInterSeg}
.ic v(in285) = -0.065
yneuron neuron286 in286 0 segParams
R286287 in286 in287 {rInterSeg}
.ic v(in286) = -0.065
yneuron neuron287 in287 0 segParams
R287288 in287 in288 {rInterSeg}
.ic v(in287) = -0.065
yneuron neuron288 in288 0 segParams
R288289 in288 in289 {rInterSeg}
.ic v(in288) = -0.065
yneuron neuron289 in289 0 segParams
R289290 in289 in290 {rInterSeg}
.ic v(in289) = -0.065
yneuron neuron290 in290 0 segParams
R290291 in290 in291 {rInterSeg}
.ic v(in290) = -0.065
yneuron neuron291 in291 0 segParams
R291292 in291 in292 {rInterSeg}
.ic v(in291) = -0.065
yneuron neuron292 in292 0 segParams
R292293 in292 in293 {rInterSeg}
.ic v(in292) = -0.065
yneuron neuron293 in293 0 segParams
R293294 in293 in294 {rInterSeg}
.ic v(in293) = -0.065
yneuron neuron294 in294 0 segParams
R294295 in294 in295 {rInterSeg}
.ic v(in294) = -0.065
yneuron neuron295 in295 0 segParams
R295296 in295 in296 {rInterSeg}
.ic v(in295) = -0.065
yneuron neuron296 in296 0 segParams
R296297 in296 in297 {rInterSeg}
.ic v(in296) = -0.065
yneuron neuron297 in297 0 segParams
R297298 in297 in298 {rInterSeg}
.ic v(in297) = -0.065
yneuron neuron298 in298 0 segParams
R298299 in298 in299 {rInterSeg}
.ic v(in298) = -0.065
yneuron neuron299 in299 0 segParams
R299300 in299 in300 {rInterSeg}
.ic v(in299) = -0.065
yneuron neuron300 in300 0 segParams
R300301 in300 in301 {rInterSeg}
.ic v(in300) = -0.065
yneuron neuron301 in301 0 segParams
R301302 in301 in302 {rInterSeg}
.ic v(in301) = -0.065
yneuron neuron302 in302 0 segParams
R302303 in302 in303 {rInterSeg}
.ic v(in302) = -0.065
yneuron neuron303 in303 0 segParams
R303304 in303 in304 {rInterSeg}
.ic v(in303) = -0.065
yneuron neuron304 in304 0 segParams
R304305 in304 in305 {rInterSeg}
.ic v(in304) = -0.065
yneuron neuron305 in305 0 segParams
R305306 in305 in306 {rInterSeg}
.ic v(in305) = -0.065
yneuron neuron306 in306 0 segParams
R306307 in306 in307 {rInterSeg}
.ic v(in306) = -0.065
yneuron neuron307 in307 0 segParams
R307308 in307 in308 {rInterSeg}
.ic v(in307) = -0.065
yneuron neuron308 in308 0 segParams
R308309 in308 in309 {rInterSeg}
.ic v(in308) = -0.065
yneuron neuron309 in309 0 segParams
R309310 in309 in310 {rInterSeg}
.ic v(in309) = -0.065
yneuron neuron310 in310 0 segParams
R310311 in310 in311 {rInterSeg}
.ic v(in310) = -0.065
yneuron neuron311 in311 0 segParams
R311312 in311 in312 {rInterSeg}
.ic v(in311) = -0.065
yneuron neuron312 in312 0 segParams
R312313 in312 in313 {rInterSeg}
.ic v(in312) = -0.065
yneuron neuron313 in313 0 segParams
R313314 in313 in314 {rInterSeg}
.ic v(in313) = -0.065
yneuron neuron314 in314 0 segParams
R314315 in314 in315 {rInterSeg}
.ic v(in314) = -0.065
yneuron neuron315 in315 0 segParams
R315316 in315 in316 {rInterSeg}
.ic v(in315) = -0.065
yneuron neuron316 in316 0 segParams
R316317 in316 in317 {rInterSeg}
.ic v(in316) = -0.065