branched cable simulation - rallpack 2 


.tran 0 0.25  
.options linsol type=klu
*.options timeint maxord=1
*.options output initial_interval=1.0e-3

* rallpack 2 calls for a steady current input.  But we need to use PULSE so
* that the current will be off during dcop calculation
Iin 0 n0 PULSE( 0 1.0e-10 1.0e-12 0.0 0.0 1.0e10 1.0e10)

* membrane properties (from rallpack2 README file)
* Ra = 1.0 ohms meter
* Rm = 4.0 ohms meter^2
* Cm = 0.01 F/m^2
* Em = -0.065 Volts
* confirmed that these are the same parameter values as for rallpack1

* axial resistance 1 ohms m
.param Ra = 1.0	; [ohm m]

* specific membrane capacitance 0.01 F/m^2 
.param memC = { 0.01 } ; [F/m^2]

* leak current has membrane resistivity of 4 ohms m^2, with reversal potential of -65mV
.param rm = { 4.0 }    ; [ohm m^2]
.param memG = { 1 / rm }                  ; [1/(ohm m^2)]
.param revE = -0.065                      ; [V]

* neuron model - this just specifies electrophysiological parameters; size parameters will vary
.model segParams neuron level=6 ionchannelmodel=passive cMem={memC}  gMem={memG} vRest={revE} R={Ra} N=1
 
  
yneuron neuron00 n0 n00 segParams L={3.20000e-05} A={8.00000e-06}
yneuron neuron000 n00 n000 segParams L={2.54000e-05} A={5.04000e-06}
yneuron neuron0000 n000 n0000 segParams L={2.01600e-05} A={3.17500e-06}
yneuron neuron00000 n0000 n00000 segParams L={1.60000e-05} A={2.00000e-06}
yneuron neuron000000 n00000 n000000 segParams L={1.27000e-05} A={1.26000e-06}
yneuron neuron0000000 n000000 n0000000 segParams L={1.00800e-05} A={7.93500e-07}
yneuron neuron00000000 n0000000 n00000000 segParams L={8.00000e-06} A={5.00000e-07}
yneuron neuron000000000 n00000000 n000000000 segParams L={6.35000e-06} A={3.15000e-07}
yneuron neuron0000000000 n000000000 n0000000000 segParams L={5.04000e-06} A={1.98500e-07}
yneuron neuron00000000000 n0000000000 n00000000000 segParams L={4.00000e-06} A={1.25000e-07}
yneuron neuron00000000001 n0000000000 n00000000001 segParams L={4.00000e-06} A={1.25000e-07}
yneuron neuron0000000001 n000000000 n0000000001 segParams L={5.04000e-06} A={1.98500e-07}
yneuron neuron00000000010 n0000000001 n00000000010 segParams L={4.00000e-06} A={1.25000e-07}
yneuron neuron00000000011 n0000000001 n00000000011 segParams L={4.00000e-06} A={1.25000e-07}
yneuron neuron000000001 n00000000 n000000001 segParams L={6.35000e-06} A={3.15000e-07}
yneuron neuron0000000010 n000000001 n0000000010 segParams L={5.04000e-06} A={1.98500e-07}
yneuron neuron00000000100 n0000000010 n00000000100 segParams L={4.00000e-06} A={1.25000e-07}
yneuron neuron00000000101 n0000000010 n00000000101 segParams L={4.00000e-06} A={1.25000e-07}
yneuron neuron0000000011 n000000001 n0000000011 segParams L={5.04000e-06} A={1.98500e-07}
yneuron neuron00000000110 n0000000011 n00000000110 segParams L={4.00000e-06} A={1.25000e-07}
yneuron neuron00000000111 n0000000011 n00000000111 segParams L={4.00000e-06} A={1.25000e-07}
yneuron neuron00000001 n0000000 n00000001 segParams L={8.00000e-06} A={5.00000e-07}
yneuron neuron000000010 n00000001 n000000010 segParams L={6.35000e-06} A={3.15000e-07}
yneuron neuron0000000100 n000000010 n0000000100 segParams L={5.04000e-06} A={1.98500e-07}
yneuron neuron00000001000 n0000000100 n00000001000 segParams L={4.00000e-06} A={1.25000e-07}
yneuron neuron00000001001 n0000000100 n00000001001 segParams L={4.00000e-06} A={1.25000e-07}
yneuron neuron0000000101 n000000010 n0000000101 segParams L={5.04000e-06} A={1.98500e-07}
yneuron neuron00000001010 n0000000101 n00000001010 segParams L={4.00000e-06} A={1.25000e-07}
yneuron neuron00000001011 n0000000101 n00000001011 segParams L={4.00000e-06} A={1.25000e-07}
yneuron neuron000000011 n00000001 n000000011 segParams L={6.35000e-06} A={3.15000e-07}
yneuron neuron0000000110 n000000011 n0000000110 segParams L={5.04000e-06} A={1.98500e-07}
yneuron neuron00000001100 n0000000110 n00000001100 segParams L={4.00000e-06} A={1.25000e-07}
yneuron neuron00000001101 n0000000110 n00000001101 segParams L={4.00000e-06} A={1.25000e-07}
yneuron neuron0000000111 n000000011 n0000000111 segParams L={5.04000e-06} A={1.98500e-07}
yneuron neuron00000001110 n0000000111 n00000001110 segParams L={4.00000e-06} A={1.25000e-07}
yneuron neuron00000001111 n0000000111 n00000001111 segParams L={4.00000e-06} A={1.25000e-07}
yneuron neuron0000001 n000000 n0000001 segParams L={1.00800e-05} A={7.93500e-07}
yneuron neuron00000010 n0000001 n00000010 segParams L={8.00000e-06} A={5.00000e-07}
yneuron neuron000000100 n00000010 n000000100 segParams L={6.35000e-06} A={3.15000e-07}
yneuron neuron0000001000 n000000100 n0000001000 segParams L={5.04000e-06} A={1.98500e-07}
yneuron neuron00000010000 n0000001000 n00000010000 segParams L={4.00000e-06} A={1.25000e-07}
yneuron neuron00000010001 n0000001000 n00000010001 segParams L={4.00000e-06} A={1.25000e-07}
yneuron neuron0000001001 n000000100 n0000001001 segParams L={5.04000e-06} A={1.98500e-07}
yneuron neuron00000010010 n0000001001 n00000010010 segParams L={4.00000e-06} A={1.25000e-07}
yneuron neuron00000010011 n0000001001 n00000010011 segParams L={4.00000e-06} A={1.25000e-07}
yneuron neuron000000101 n00000010 n000000101 segParams L={6.35000e-06} A={3.15000e-07}
yneuron neuron0000001010 n000000101 n0000001010 segParams L={5.04000e-06} A={1.98500e-07}
yneuron neuron00000010100 n0000001010 n00000010100 segParams L={4.00000e-06} A={1.25000e-07}
yneuron neuron00000010101 n0000001010 n00000010101 segParams L={4.00000e-06} A={1.25000e-07}
yneuron neuron0000001011 n000000101 n0000001011 segParams L={5.04000e-06} A={1.98500e-07}
yneuron neuron00000010110 n0000001011 n00000010110 segParams L={4.00000e-06} A={1.25000e-07}
yneuron neuron00000010111 n0000001011 n00000010111 segParams L={4.00000e-06} A={1.25000e-07}
yneuron neuron00000011 n0000001 n00000011 segParams L={8.00000e-06} A={5.00000e-07}
yneuron neuron000000110 n00000011 n000000110 segParams L={6.35000e-06} A={3.15000e-07}
yneuron neuron0000001100 n000000110 n0000001100 segParams L={5.04000e-06} A={1.98500e-07}
yneuron neuron00000011000 n0000001100 n00000011000 segParams L={4.00000e-06} A={1.25000e-07}
yneuron neuron00000011001 n0000001100 n00000011001 segParams L={4.00000e-06} A={1.25000e-07}
yneuron neuron0000001101 n000000110 n0000001101 segParams L={5.04000e-06} A={1.98500e-07}
yneuron neuron00000011010 n0000001101 n00000011010 segParams L={4.00000e-06} A={1.25000e-07}
yneuron neuron00000011011 n0000001101 n00000011011 segParams L={4.00000e-06} A={1.25000e-07}
yneuron neuron000000111 n00000011 n000000111 segParams L={6.35000e-06} A={3.15000e-07}
yneuron neuron0000001110 n000000111 n0000001110 segParams L={5.04000e-06} A={1.98500e-07}
yneuron neuron00000011100 n0000001110 n00000011100 segParams L={4.00000e-06} A={1.25000e-07}
yneuron neuron00000011101 n0000001110 n00000011101 segParams L={4.00000e-06} A={1.25000e-07}
yneuron neuron0000001111 n000000111 n0000001111 segParams L={5.04000e-06} A={1.98500e-07}
yneuron neuron00000011110 n0000001111 n00000011110 segParams L={4.00000e-06} A={1.25000e-07}
yneuron neuron00000011111 n0000001111 n00000011111 segParams L={4.00000e-06} A={1.25000e-07}
yneuron neuron000001 n00000 n000001 segParams L={1.27000e-05} A={1.26000e-06}
yneuron neuron0000010 n000001 n0000010 segParams L={1.00800e-05} A={7.93500e-07}
yneuron neuron00000100 n0000010 n00000100 segParams L={8.00000e-06} A={5.00000e-07}
yneuron neuron000001000 n00000100 n000001000 segParams L={6.35000e-06} A={3.15000e-07}
yneuron neuron0000010000 n000001000 n0000010000 segParams L={5.04000e-06} A={1.98500e-07}
yneuron neuron00000100000 n0000010000 n00000100000 segParams L={4.00000e-06} A={1.25000e-07}
yneuron neuron00000100001 n0000010000 n00000100001 segParams L={4.00000e-06} A={1.25000e-07}
yneuron neuron0000010001 n000001000 n0000010001 segParams L={5.04000e-06} A={1.98500e-07}
yneuron neuron00000100010 n0000010001 n00000100010 segParams L={4.00000e-06} A={1.25000e-07}
yneuron neuron00000100011 n0000010001 n00000100011 segParams L={4.00000e-06} A={1.25000e-07}
yneuron neuron000001001 n00000100 n000001001 segParams L={6.35000e-06} A={3.15000e-07}
yneuron neuron0000010010 n000001001 n0000010010 segParams L={5.04000e-06} A={1.98500e-07}
yneuron neuron00000100100 n0000010010 n00000100100 segParams L={4.00000e-06} A={1.25000e-07}
yneuron neuron00000100101 n0000010010 n00000100101 segParams L={4.00000e-06} A={1.25000e-07}
yneuron neuron0000010011 n000001001 n0000010011 segParams L={5.04000e-06} A={1.98500e-07}
yneuron neuron00000100110 n0000010011 n00000100110 segParams L={4.00000e-06} A={1.25000e-07}
yneuron neuron00000100111 n0000010011 n00000100111 segParams L={4.00000e-06} A={1.25000e-07}
yneuron neuron00000101 n0000010 n00000101 segParams L={8.00000e-06} A={5.00000e-07}
yneuron neuron000001010 n00000101 n000001010 segParams L={6.35000e-06} A={3.15000e-07}
yneuron neuron0000010100 n000001010 n0000010100 segParams L={5.04000e-06} A={1.98500e-07}
yneuron neuron00000101000 n0000010100 n00000101000 segParams L={4.00000e-06} A={1.25000e-07}
yneuron neuron00000101001 n0000010100 n00000101001 segParams L={4.00000e-06} A={1.25000e-07}
yneuron neuron0000010101 n000001010 n0000010101 segParams L={5.04000e-06} A={1.98500e-07}
yneuron neuron00000101010 n0000010101 n00000101010 segParams L={4.00000e-06} A={1.25000e-07}
yneuron neuron00000101011 n0000010101 n00000101011 segParams L={4.00000e-06} A={1.25000e-07}
yneuron neuron000001011 n00000101 n000001011 segParams L={6.35000e-06} A={3.15000e-07}
yneuron neuron0000010110 n000001011 n0000010110 segParams L={5.04000e-06} A={1.98500e-07}
yneuron neuron00000101100 n0000010110 n00000101100 segParams L={4.00000e-06} A={1.25000e-07}
yneuron neuron00000101101 n0000010110 n00000101101 segParams L={4.00000e-06} A={1.25000e-07}
yneuron neuron0000010111 n000001011 n0000010111 segParams L={5.04000e-06} A={1.98500e-07}
yneuron neuron00000101110 n0000010111 n00000101110 segParams L={4.00000e-06} A={1.25000e-07}
yneuron neuron00000101111 n0000010111 n00000101111 segParams L={4.00000e-06} A={1.25000e-07}
yneuron neuron0000011 n000001 n0000011 segParams L={1.00800e-05} A={7.93500e-07}
yneuron neuron00000110 n0000011 n00000110 segParams L={8.00000e-06} A={5.00000e-07}
yneuron neuron000001100 n00000110 n000001100 segParams L={6.35000e-06} A={3.15000e-07}
yneuron neuron0000011000 n000001100 n0000011000 segParams L={5.04000e-06} A={1.98500e-07}
yneuron neuron00000110000 n0000011000 n00000110000 segParams L={4.00000e-06} A={1.25000e-07}
yneuron neuron00000110001 n0000011000 n00000110001 segParams L={4.00000e-06} A={1.25000e-07}
yneuron neuron0000011001 n000001100 n0000011001 segParams L={5.04000e-06} A={1.98500e-07}
yneuron neuron00000110010 n0000011001 n00000110010 segParams L={4.00000e-06} A={1.25000e-07}
yneuron neuron00000110011 n0000011001 n00000110011 segParams L={4.00000e-06} A={1.25000e-07}
yneuron neuron000001101 n00000110 n000001101 segParams L={6.35000e-06} A={3.15000e-07}
yneuron neuron0000011010 n000001101 n0000011010 segParams L={5.04000e-06} A={1.98500e-07}
yneuron neuron00000110100 n0000011010 n00000110100 segParams L={4.00000e-06} A={1.25000e-07}
yneuron neuron00000110101 n0000011010 n00000110101 segParams L={4.00000e-06} A={1.25000e-07}
yneuron neuron0000011011 n000001101 n0000011011 segParams L={5.04000e-06} A={1.98500e-07}
yneuron neuron00000110110 n0000011011 n00000110110 segParams L={4.00000e-06} A={1.25000e-07}
yneuron neuron00000110111 n0000011011 n00000110111 segParams L={4.00000e-06} A={1.25000e-07}
yneuron neuron00000111 n0000011 n00000111 segParams L={8.00000e-06} A={5.00000e-07}
yneuron neuron000001110 n00000111 n000001110 segParams L={6.35000e-06} A={3.15000e-07}
yneuron neuron0000011100 n000001110 n0000011100 segParams L={5.04000e-06} A={1.98500e-07}
yneuron neuron00000111000 n0000011100 n00000111000 segParams L={4.00000e-06} A={1.25000e-07}
yneuron neuron00000111001 n0000011100 n00000111001 segParams L={4.00000e-06} A={1.25000e-07}
yneuron neuron0000011101 n000001110 n0000011101 segParams L={5.04000e-06} A={1.98500e-07}
yneuron neuron00000111010 n0000011101 n00000111010 segParams L={4.00000e-06} A={1.25000e-07}
yneuron neuron00000111011 n0000011101 n00000111011 segParams L={4.00000e-06} A={1.25000e-07}
yneuron neuron000001111 n00000111 n000001111 segParams L={6.35000e-06} A={3.15000e-07}
yneuron neuron0000011110 n000001111 n0000011110 segParams L={5.04000e-06} A={1.98500e-07}
yneuron neuron00000111100 n0000011110 n00000111100 segParams L={4.00000e-06} A={1.25000e-07}
yneuron neuron00000111101 n0000011110 n00000111101 segParams L={4.00000e-06} A={1.25000e-07}
yneuron neuron0000011111 n000001111 n0000011111 segParams L={5.04000e-06} A={1.98500e-07}
yneuron neuron00000111110 n0000011111 n00000111110 segParams L={4.00000e-06} A={1.25000e-07}
yneuron neuron00000111111 n0000011111 n00000111111 segParams L={4.00000e-06} A={1.25000e-07}
yneuron neuron00001 n0000 n00001 segParams L={1.60000e-05} A={2.00000e-06}
yneuron neuron000010 n00001 n000010 segParams L={1.27000e-05} A={1.26000e-06}
yneuron neuron0000100 n000010 n0000100 segParams L={1.00800e-05} A={7.93500e-07}
yneuron neuron00001000 n0000100 n00001000 segParams L={8.00000e-06} A={5.00000e-07}
yneuron neuron000010000 n00001000 n000010000 segParams L={6.35000e-06} A={3.15000e-07}
yneuron neuron0000100000 n000010000 n0000100000 segParams L={5.04000e-06} A={1.98500e-07}
yneuron neuron00001000000 n0000100000 n00001000000 segParams L={4.00000e-06} A={1.25000e-07}
yneuron neuron00001000001 n0000100000 n00001000001 segParams L={4.00000e-06} A={1.25000e-07}
yneuron neuron0000100001 n000010000 n0000100001 segParams L={5.04000e-06} A={1.98500e-07}
yneuron neuron00001000010 n0000100001 n00001000010 segParams L={4.00000e-06} A={1.25000e-07}
yneuron neuron00001000011 n0000100001 n00001000011 segParams L={4.00000e-06} A={1.25000e-07}
yneuron neuron000010001 n00001000 n000010001 segParams L={6.35000e-06} A={3.15000e-07}
yneuron neuron0000100010 n000010001 n0000100010 segParams L={5.04000e-06} A={1.98500e-07}
yneuron neuron00001000100 n0000100010 n00001000100 segParams L={4.00000e-06} A={1.25000e-07}
yneuron neuron00001000101 n0000100010 n00001000101 segParams L={4.00000e-06} A={1.25000e-07}
yneuron neuron0000100011 n000010001 n0000100011 segParams L={5.04000e-06} A={1.98500e-07}
yneuron neuron00001000110 n0000100011 n00001000110 segParams L={4.00000e-06} A={1.25000e-07}
yneuron neuron00001000111 n0000100011 n00001000111 segParams L={4.00000e-06} A={1.25000e-07}
yneuron neuron00001001 n0000100 n00001001 segParams L={8.00000e-06} A={5.00000e-07}
yneuron neuron000010010 n00001001 n000010010 segParams L={6.35000e-06} A={3.15000e-07}
yneuron neuron0000100100 n000010010 n0000100100 segParams L={5.04000e-06} A={1.98500e-07}
yneuron neuron00001001000 n0000100100 n00001001000 segParams L={4.00000e-06} A={1.25000e-07}
yneuron neuron00001001001 n0000100100 n00001001001 segParams L={4.00000e-06} A={1.25000e-07}
yneuron neuron0000100101 n000010010 n0000100101 segParams L={5.04000e-06} A={1.98500e-07}
yneuron neuron00001001010 n0000100101 n00001001010 segParams L={4.00000e-06} A={1.25000e-07}
yneuron neuron00001001011 n0000100101 n00001001011 segParams L={4.00000e-06} A={1.25000e-07}
yneuron neuron000010011 n00001001 n000010011 segParams L={6.35000e-06} A={3.15000e-07}
yneuron neuron0000100110 n000010011 n0000100110 segParams L={5.04000e-06} A={1.98500e-07}
yneuron neuron00001001100 n0000100110 n00001001100 segParams L={4.00000e-06} A={1.25000e-07}
yneuron neuron00001001101 n0000100110 n00001001101 segParams L={4.00000e-06} A={1.25000e-07}
yneuron neuron0000100111 n000010011 n0000100111 segParams L={5.04000e-06} A={1.98500e-07}
yneuron neuron00001001110 n0000100111 n00001001110 segParams L={4.00000e-06} A={1.25000e-07}
yneuron neuron00001001111 n0000100111 n00001001111 segParams L={4.00000e-06} A={1.25000e-07}
yneuron neuron0000101 n000010 n0000101 segParams L={1.00800e-05} A={7.93500e-07}
yneuron neuron00001010 n0000101 n00001010 segParams L={8.00000e-06} A={5.00000e-07}
yneuron neuron000010100 n00001010 n000010100 segParams L={6.35000e-06} A={3.15000e-07}
yneuron neuron0000101000 n000010100 n0000101000 segParams L={5.04000e-06} A={1.98500e-07}
yneuron neuron00001010000 n0000101000 n00001010000 segParams L={4.00000e-06} A={1.25000e-07}
yneuron neuron00001010001 n0000101000 n00001010001 segParams L={4.00000e-06} A={1.25000e-07}
yneuron neuron0000101001 n000010100 n0000101001 segParams L={5.04000e-06} A={1.98500e-07}
yneuron neuron00001010010 n0000101001 n00001010010 segParams L={4.00000e-06} A={1.25000e-07}
yneuron neuron00001010011 n0000101001 n00001010011 segParams L={4.00000e-06} A={1.25000e-07}
yneuron neuron000010101 n00001010 n000010101 segParams L={6.35000e-06} A={3.15000e-07}
yneuron neuron0000101010 n000010101 n0000101010 segParams L={5.04000e-06} A={1.98500e-07}
yneuron neuron00001010100 n0000101010 n00001010100 segParams L={4.00000e-06} A={1.25000e-07}
yneuron neuron00001010101 n0000101010 n00001010101 segParams L={4.00000e-06} A={1.25000e-07}
yneuron neuron0000101011 n000010101 n0000101011 segParams L={5.04000e-06} A={1.98500e-07}
yneuron neuron00001010110 n0000101011 n00001010110 segParams L={4.00000e-06} A={1.25000e-07}
yneuron neuron00001010111 n0000101011 n00001010111 segParams L={4.00000e-06} A={1.25000e-07}
yneuron neuron00001011 n0000101 n00001011 segParams L={8.00000e-06} A={5.00000e-07}
yneuron neuron000010110 n00001011 n000010110 segParams L={6.35000e-06} A={3.15000e-07}
yneuron neuron0000101100 n000010110 n0000101100 segParams L={5.04000e-06} A={1.98500e-07}
yneuron neuron00001011000 n0000101100 n00001011000 segParams L={4.00000e-06} A={1.25000e-07}
yneuron neuron00001011001 n0000101100 n00001011001 segParams L={4.00000e-06} A={1.25000e-07}
yneuron neuron0000101101 n000010110 n0000101101 segParams L={5.04000e-06} A={1.98500e-07}
yneuron neuron00001011010 n0000101101 n00001011010 segParams L={4.00000e-06} A={1.25000e-07}
yneuron neuron00001011011 n0000101101 n00001011011 segParams L={4.00000e-06} A={1.25000e-07}
yneuron neuron000010111 n00001011 n000010111 segParams L={6.35000e-06} A={3.15000e-07}
yneuron neuron0000101110 n000010111 n0000101110 segParams L={5.04000e-06} A={1.98500e-07}
yneuron neuron00001011100 n0000101110 n00001011100 segParams L={4.00000e-06} A={1.25000e-07}
yneuron neuron00001011101 n0000101110 n00001011101 segParams L={4.00000e-06} A={1.25000e-07}
yneuron neuron0000101111 n000010111 n0000101111 segParams L={5.04000e-06} A={1.98500e-07}
yneuron neuron00001011110 n0000101111 n00001011110 segParams L={4.00000e-06} A={1.25000e-07}
yneuron neuron00001011111 n0000101111 n00001011111 segParams L={4.00000e-06} A={1.25000e-07}
yneuron neuron000011 n00001 n000011 segParams L={1.27000e-05} A={1.26000e-06}
yneuron neuron0000110 n000011 n0000110 segParams L={1.00800e-05} A={7.93500e-07}
yneuron neuron00001100 n0000110 n00001100 segParams L={8.00000e-06} A={5.00000e-07}
yneuron neuron000011000 n00001100 n000011000 segParams L={6.35000e-06} A={3.15000e-07}
yneuron neuron0000110000 n000011000 n0000110000 segParams L={5.04000e-06} A={1.98500e-07}
yneuron neuron00001100000 n0000110000 n00001100000 segParams L={4.00000e-06} A={1.25000e-07}
yneuron neuron00001100001 n0000110000 n00001100001 segParams L={4.00000e-06} A={1.25000e-07}
yneuron neuron0000110001 n000011000 n0000110001 segParams L={5.04000e-06} A={1.98500e-07}
yneuron neuron00001100010 n0000110001 n00001100010 segParams L={4.00000e-06} A={1.25000e-07}
yneuron neuron00001100011 n0000110001 n00001100011 segParams L={4.00000e-06} A={1.25000e-07}
yneuron neuron000011001 n00001100 n000011001 segParams L={6.35000e-06} A={3.15000e-07}
yneuron neuron0000110010 n000011001 n0000110010 segParams L={5.04000e-06} A={1.98500e-07}
yneuron neuron00001100100 n0000110010 n00001100100 segParams L={4.00000e-06} A={1.25000e-07}
yneuron neuron00001100101 n0000110010 n00001100101 segParams L={4.00000e-06} A={1.25000e-07}
yneuron neuron0000110011 n000011001 n0000110011 segParams L={5.04000e-06} A={1.98500e-07}
yneuron neuron00001100110 n0000110011 n00001100110 segParams L={4.00000e-06} A={1.25000e-07}
yneuron neuron00001100111 n0000110011 n00001100111 segParams L={4.00000e-06} A={1.25000e-07}
yneuron neuron00001101 n0000110 n00001101 segParams L={8.00000e-06} A={5.00000e-07}
yneuron neuron000011010 n00001101 n000011010 segParams L={6.35000e-06} A={3.15000e-07}
yneuron neuron0000110100 n000011010 n0000110100 segParams L={5.04000e-06} A={1.98500e-07}
yneuron neuron00001101000 n0000110100 n00001101000 segParams L={4.00000e-06} A={1.25000e-07}
yneuron neuron00001101001 n0000110100 n00001101001 segParams L={4.00000e-06} A={1.25000e-07}
yneuron neuron0000110101 n000011010 n0000110101 segParams L={5.04000e-06} A={1.98500e-07}
yneuron neuron00001101010 n0000110101 n00001101010 segParams L={4.00000e-06} A={1.25000e-07}
yneuron neuron00001101011 n0000110101 n00001101011 segParams L={4.00000e-06} A={1.25000e-07}
yneuron neuron000011011 n00001101 n000011011 segParams L={6.35000e-06} A={3.15000e-07}
yneuron neuron0000110110 n000011011 n0000110110 segParams L={5.04000e-06} A={1.98500e-07}
yneuron neuron00001101100 n0000110110 n00001101100 segParams L={4.00000e-06} A={1.25000e-07}
yneuron neuron00001101101 n0000110110 n00001101101 segParams L={4.00000e-06} A={1.25000e-07}
yneuron neuron0000110111 n000011011 n0000110111 segParams L={5.04000e-06} A={1.98500e-07}
yneuron neuron00001101110 n0000110111 n00001101110 segParams L={4.00000e-06} A={1.25000e-07}
yneuron neuron00001101111 n0000110111 n00001101111 segParams L={4.00000e-06} A={1.25000e-07}
yneuron neuron0000111 n000011 n0000111 segParams L={1.00800e-05} A={7.93500e-07}
yneuron neuron00001110 n0000111 n00001110 segParams L={8.00000e-06} A={5.00000e-07}
yneuron neuron000011100 n00001110 n000011100 segParams L={6.35000e-06} A={3.15000e-07}
yneuron neuron0000111000 n000011100 n0000111000 segParams L={5.04000e-06} A={1.98500e-07}
yneuron neuron00001110000 n0000111000 n00001110000 segParams L={4.00000e-06} A={1.25000e-07}
yneuron neuron00001110001 n0000111000 n00001110001 segParams L={4.00000e-06} A={1.25000e-07}
yneuron neuron0000111001 n000011100 n0000111001 segParams L={5.04000e-06} A={1.98500e-07}
yneuron neuron00001110010 n0000111001 n00001110010 segParams L={4.00000e-06} A={1.25000e-07}
yneuron neuron00001110011 n0000111001 n00001110011 segParams L={4.00000e-06} A={1.25000e-07}
yneuron neuron000011101 n00001110 n000011101 segParams L={6.35000e-06} A={3.15000e-07}
yneuron neuron0000111010 n000011101 n0000111010 segParams L={5.04000e-06} A={1.98500e-07}
yneuron neuron00001110100 n0000111010 n00001110100 segParams L={4.00000e-06} A={1.25000e-07}
yneuron neuron00001110101 n0000111010 n00001110101 segParams L={4.00000e-06} A={1.25000e-07}
yneuron neuron0000111011 n000011101 n0000111011 segParams L={5.04000e-06} A={1.98500e-07}
yneuron neuron00001110110 n0000111011 n00001110110 segParams L={4.00000e-06} A={1.25000e-07}
yneuron neuron00001110111 n0000111011 n00001110111 segParams L={4.00000e-06} A={1.25000e-07}
yneuron neuron00001111 n0000111 n00001111 segParams L={8.00000e-06} A={5.00000e-07}
yneuron neuron000011110 n00001111 n000011110 segParams L={6.35000e-06} A={3.15000e-07}
yneuron neuron0000111100 n000011110 n0000111100 segParams L={5.04000e-06} A={1.98500e-07}
yneuron neuron00001111000 n0000111100 n00001111000 segParams L={4.00000e-06} A={1.25000e-07}
yneuron neuron00001111001 n0000111100 n00001111001 segParams L={4.00000e-06} A={1.25000e-07}
yneuron neuron0000111101 n000011110 n0000111101 segParams L={5.04000e-06} A={1.98500e-07}
yneuron neuron00001111010 n0000111101 n00001111010 segParams L={4.00000e-06} A={1.25000e-07}
yneuron neuron00001111011 n0000111101 n00001111011 segParams L={4.00000e-06} A={1.25000e-07}
yneuron neuron000011111 n00001111 n000011111 segParams L={6.35000e-06} A={3.15000e-07}
yneuron neuron0000111110 n000011111 n0000111110 segParams L={5.04000e-06} A={1.98500e-07}
yneuron neuron00001111100 n0000111110 n00001111100 segParams L={4.00000e-06} A={1.25000e-07}
yneuron neuron00001111101 n0000111110 n00001111101 segParams L={4.00000e-06} A={1.25000e-07}
yneuron neuron0000111111 n000011111 n0000111111 segParams L={5.04000e-06} A={1.98500e-07}
yneuron neuron00001111110 n0000111111 n00001111110 segParams L={4.00000e-06} A={1.25000e-07}
yneuron neuron00001111111 n0000111111 n00001111111 segParams L={4.00000e-06} A={1.25000e-07}
yneuron neuron0001 n000 n0001 segParams L={2.01600e-05} A={3.17500e-06}
yneuron neuron00010 n0001 n00010 segParams L={1.60000e-05} A={2.00000e-06}
yneuron neuron000100 n00010 n000100 segParams L={1.27000e-05} A={1.26000e-06}
yneuron neuron0001000 n000100 n0001000 segParams L={1.00800e-05} A={7.93500e-07}
yneuron neuron00010000 n0001000 n00010000 segParams L={8.00000e-06} A={5.00000e-07}
yneuron neuron000100000 n00010000 n000100000 segParams L={6.35000e-06} A={3.15000e-07}
yneuron neuron0001000000 n000100000 n0001000000 segParams L={5.04000e-06} A={1.98500e-07}
yneuron neuron00010000000 n0001000000 n00010000000 segParams L={4.00000e-06} A={1.25000e-07}
yneuron neuron00010000001 n0001000000 n00010000001 segParams L={4.00000e-06} A={1.25000e-07}
yneuron neuron0001000001 n000100000 n0001000001 segParams L={5.04000e-06} A={1.98500e-07}
yneuron neuron00010000010 n0001000001 n00010000010 segParams L={4.00000e-06} A={1.25000e-07}
yneuron neuron00010000011 n0001000001 n00010000011 segParams L={4.00000e-06} A={1.25000e-07}
yneuron neuron000100001 n00010000 n000100001 segParams L={6.35000e-06} A={3.15000e-07}
yneuron neuron0001000010 n000100001 n0001000010 segParams L={5.04000e-06} A={1.98500e-07}
yneuron neuron00010000100 n0001000010 n00010000100 segParams L={4.00000e-06} A={1.25000e-07}
yneuron neuron00010000101 n0001000010 n00010000101 segParams L={4.00000e-06} A={1.25000e-07}
yneuron neuron0001000011 n000100001 n0001000011 segParams L={5.04000e-06} A={1.98500e-07}
yneuron neuron00010000110 n0001000011 n00010000110 segParams L={4.00000e-06} A={1.25000e-07}
yneuron neuron00010000111 n0001000011 n00010000111 segParams L={4.00000e-06} A={1.25000e-07}
yneuron neuron00010001 n0001000 n00010001 segParams L={8.00000e-06} A={5.00000e-07}
yneuron neuron000100010 n00010001 n000100010 segParams L={6.35000e-06} A={3.15000e-07}
yneuron neuron0001000100 n000100010 n0001000100 segParams L={5.04000e-06} A={1.98500e-07}
yneuron neuron00010001000 n0001000100 n00010001000 segParams L={4.00000e-06} A={1.25000e-07}
yneuron neuron00010001001 n0001000100 n00010001001 segParams L={4.00000e-06} A={1.25000e-07}
yneuron neuron0001000101 n000100010 n0001000101 segParams L={5.04000e-06} A={1.98500e-07}
yneuron neuron00010001010 n0001000101 n00010001010 segParams L={4.00000e-06} A={1.25000e-07}
yneuron neuron00010001011 n0001000101 n00010001011 segParams L={4.00000e-06} A={1.25000e-07}
yneuron neuron000100011 n00010001 n000100011 segParams L={6.35000e-06} A={3.15000e-07}
yneuron neuron0001000110 n000100011 n0001000110 segParams L={5.04000e-06} A={1.98500e-07}
yneuron neuron00010001100 n0001000110 n00010001100 segParams L={4.00000e-06} A={1.25000e-07}
yneuron neuron00010001101 n0001000110 n00010001101 segParams L={4.00000e-06} A={1.25000e-07}
yneuron neuron0001000111 n000100011 n0001000111 segParams L={5.04000e-06} A={1.98500e-07}
yneuron neuron00010001110 n0001000111 n00010001110 segParams L={4.00000e-06} A={1.25000e-07}
yneuron neuron00010001111 n0001000111 n00010001111 segParams L={4.00000e-06} A={1.25000e-07}
yneuron neuron0001001 n000100 n0001001 segParams L={1.00800e-05} A={7.93500e-07}
yneuron neuron00010010 n0001001 n00010010 segParams L={8.00000e-06} A={5.00000e-07}
yneuron neuron000100100 n00010010 n000100100 segParams L={6.35000e-06} A={3.15000e-07}
yneuron neuron0001001000 n000100100 n0001001000 segParams L={5.04000e-06} A={1.98500e-07}
yneuron neuron00010010000 n0001001000 n00010010000 segParams L={4.00000e-06} A={1.25000e-07}
yneuron neuron00010010001 n0001001000 n00010010001 segParams L={4.00000e-06} A={1.25000e-07}
yneuron neuron0001001001 n000100100 n0001001001 segParams L={5.04000e-06} A={1.98500e-07}
yneuron neuron00010010010 n0001001001 n00010010010 segParams L={4.00000e-06} A={1.25000e-07}
yneuron neuron00010010011 n0001001001 n00010010011 segParams L={4.00000e-06} A={1.25000e-07}
yneuron neuron000100101 n00010010 n000100101 segParams L={6.35000e-06} A={3.15000e-07}
yneuron neuron0001001010 n000100101 n0001001010 segParams L={5.04000e-06} A={1.98500e-07}
yneuron neuron00010010100 n0001001010 n00010010100 segParams L={4.00000e-06} A={1.25000e-07}
yneuron neuron00010010101 n0001001010 n00010010101 segParams L={4.00000e-06} A={1.25000e-07}
yneuron neuron0001001011 n000100101 n0001001011 segParams L={5.04000e-06} A={1.98500e-07}
yneuron neuron00010010110 n0001001011 n00010010110 segParams L={4.00000e-06} A={1.25000e-07}
yneuron neuron00010010111 n0001001011 n00010010111 segParams L={4.00000e-06} A={1.25000e-07}
yneuron neuron00010011 n0001001 n00010011 segParams L={8.00000e-06} A={5.00000e-07}
yneuron neuron000100110 n00010011 n000100110 segParams L={6.35000e-06} A={3.15000e-07}
yneuron neuron0001001100 n000100110 n0001001100 segParams L={5.04000e-06} A={1.98500e-07}
yneuron neuron00010011000 n0001001100 n00010011000 segParams L={4.00000e-06} A={1.25000e-07}
yneuron neuron00010011001 n0001001100 n00010011001 segParams L={4.00000e-06} A={1.25000e-07}
yneuron neuron0001001101 n000100110 n0001001101 segParams L={5.04000e-06} A={1.98500e-07}
yneuron neuron00010011010 n0001001101 n00010011010 segParams L={4.00000e-06} A={1.25000e-07}
yneuron neuron00010011011 n0001001101 n00010011011 segParams L={4.00000e-06} A={1.25000e-07}
yneuron neuron000100111 n00010011 n000100111 segParams L={6.35000e-06} A={3.15000e-07}
yneuron neuron0001001110 n000100111 n0001001110 segParams L={5.04000e-06} A={1.98500e-07}
yneuron neuron00010011100 n0001001110 n00010011100 segParams L={4.00000e-06} A={1.25000e-07}
yneuron neuron00010011101 n0001001110 n00010011101 segParams L={4.00000e-06} A={1.25000e-07}
yneuron neuron0001001111 n000100111 n0001001111 segParams L={5.04000e-06} A={1.98500e-07}
yneuron neuron00010011110 n0001001111 n00010011110 segParams L={4.00000e-06} A={1.25000e-07}