branched cable simulation - rallpack 2 - level1 neuron


.tran 0 0.25  
.options output initial_interval=5.0e-5
.options linsol type=klu

* rallpack 2 calls for a steady current input.  But we need to use PULSE so
* that the current will be off during dcop calculation
Iin 0 n0 PULSE( 0 1.0e-10 1.0e-12 0.0 0.0 1.0e10 1.0e10)

* membrane properties (from rallpack2 README file)
* Ra = 1.0 ohms meter
* Rm = 4.0 ohms meter^2
* Cm = 0.01 F/m^2
* Em = -0.065 Volts
* confirmed that these are the same parameter values as for rallpack1

* axial resistance 1 ohms m
.param Ra = 1.0	; [ohm m]

* specific membrane capacitance 0.01 F/m^2 
.param memC = { 0.01 } ; [F/m^2]

* leak current has membrane resistivity of 4 ohms m^2, with reversal potential of -65mV
.param rm = { 4.0 }    ; [ohm m^2]
.param memG = { 1 / rm }                  ; [1/(ohm m^2)]
.param revE = -0.065                      ; [V]

* neuron model - for level 1 neuron, have to specify actual capacitance and resistances, 
* which depend on surface area - and surface area is different at each level
  
.param SA0 = 1.6085e-09
.model level0Params neuron level=1 cMem={memC*SA0}  gMem={memG*SA0} eLeak={revE} gNa=0.0 gK=0.0 vRest={revE}
.param SA1 = 8.04348e-10
.model level1Params neuron level=1 cMem={memC*SA1}  gMem={memG*SA1} eLeak={revE} gNa=0.0 gK=0.0 vRest={revE}
.param SA2 = 4.02174e-10
.model level2Params neuron level=1 cMem={memC*SA2}  gMem={memG*SA2} eLeak={revE} gNa=0.0 gK=0.0 vRest={revE}
.param SA3 = 2.01062e-10
.model level3Params neuron level=1 cMem={memC*SA3}  gMem={memG*SA3} eLeak={revE} gNa=0.0 gK=0.0 vRest={revE}
.param SA4 = 1.00544e-10
.model level4Params neuron level=1 cMem={memC*SA4}  gMem={memG*SA4} eLeak={revE} gNa=0.0 gK=0.0 vRest={revE}
.param SA5 = 5.02559e-11
.model level5Params neuron level=1 cMem={memC*SA5}  gMem={memG*SA5} eLeak={revE} gNa=0.0 gK=0.0 vRest={revE}
.param SA6 = 2.51327e-11
.model level6Params neuron level=1 cMem={memC*SA6}  gMem={memG*SA6} eLeak={revE} gNa=0.0 gK=0.0 vRest={revE}
.param SA7 = 1.25679e-11
.model level7Params neuron level=1 cMem={memC*SA7}  gMem={memG*SA7} eLeak={revE} gNa=0.0 gK=0.0 vRest={revE}
.param SA8 = 6.28595e-12
.model level8Params neuron level=1 cMem={memC*SA8}  gMem={memG*SA8} eLeak={revE} gNa=0.0 gK=0.0 vRest={revE}
.param SA9 = 3.14159e-12
.model level9Params neuron level=1 cMem={memC*SA9}  gMem={memG*SA9} eLeak={revE} gNa=0.0 gK=0.0 vRest={revE}

.param level0R = {Ra*3.2e-05/(2*3.14159*6.4e-11)}
.param level1R = {Ra*2.54e-05/(2*3.14159*2.54016e-11)}
.param level2R = {Ra*2.016e-05/(2*3.14159*1.00806e-11)}
.param level3R = {Ra*1.6e-05/(2*3.14159*4e-12)}
.param level4R = {Ra*1.27e-05/(2*3.14159*1.5876e-12)}
.param level5R = {Ra*1.008e-05/(2*3.14159*6.29642e-13)}
.param level6R = {Ra*8e-06/(2*3.14159*2.5e-13)}
.param level7R = {Ra*6.35e-06/(2*3.14159*9.9225e-14)}
.param level8R = {Ra*5.04e-06/(2*3.14159*3.94023e-14)}
.param level9R = {Ra*4e-06/(2*3.14159*1.5625e-14)}

R001 n0 n00mid {level0R}
yneuron neuron00 n00mid 0 level0Params 
R002 n00mid n00 {level0R}
R0001 n00 n000mid {level1R}
yneuron neuron000 n000mid 0 level1Params 
R0002 n000mid n000 {level1R}
R00001 n000 n0000mid {level2R}
yneuron neuron0000 n0000mid 0 level2Params 
R00002 n0000mid n0000 {level2R}
R000001 n0000 n00000mid {level3R}
yneuron neuron00000 n00000mid 0 level3Params 
R000002 n00000mid n00000 {level3R}
R0000001 n00000 n000000mid {level4R}
yneuron neuron000000 n000000mid 0 level4Params 
R0000002 n000000mid n000000 {level4R}
R00000001 n000000 n0000000mid {level5R}
yneuron neuron0000000 n0000000mid 0 level5Params 
R00000002 n0000000mid n0000000 {level5R}
R000000001 n0000000 n00000000mid {level6R}
yneuron neuron00000000 n00000000mid 0 level6Params 
R000000002 n00000000mid n00000000 {level6R}
R0000000001 n00000000 n000000000mid {level7R}
yneuron neuron000000000 n000000000mid 0 level7Params 
R0000000002 n000000000mid n000000000 {level7R}
R00000000001 n000000000 n0000000000mid {level8R}
yneuron neuron0000000000 n0000000000mid 0 level8Params 
R00000000002 n0000000000mid n0000000000 {level8R}
R000000000001 n0000000000 n00000000000mid {level9R}
yneuron neuron00000000000 n00000000000mid 0 level9Params 
R000000000002 n00000000000mid n00000000000 {level9R}
R000000000011 n0000000000 n00000000001mid {level9R}
yneuron neuron00000000001 n00000000001mid 0 level9Params 
R000000000012 n00000000001mid n00000000001 {level9R}
R00000000011 n000000000 n0000000001mid {level8R}
yneuron neuron0000000001 n0000000001mid 0 level8Params 
R00000000012 n0000000001mid n0000000001 {level8R}
R000000000101 n0000000001 n00000000010mid {level9R}
yneuron neuron00000000010 n00000000010mid 0 level9Params 
R000000000102 n00000000010mid n00000000010 {level9R}
R000000000111 n0000000001 n00000000011mid {level9R}
yneuron neuron00000000011 n00000000011mid 0 level9Params 
R000000000112 n00000000011mid n00000000011 {level9R}
R0000000011 n00000000 n000000001mid {level7R}
yneuron neuron000000001 n000000001mid 0 level7Params 
R0000000012 n000000001mid n000000001 {level7R}
R00000000101 n000000001 n0000000010mid {level8R}
yneuron neuron0000000010 n0000000010mid 0 level8Params 
R00000000102 n0000000010mid n0000000010 {level8R}
R000000001001 n0000000010 n00000000100mid {level9R}
yneuron neuron00000000100 n00000000100mid 0 level9Params 
R000000001002 n00000000100mid n00000000100 {level9R}
R000000001011 n0000000010 n00000000101mid {level9R}
yneuron neuron00000000101 n00000000101mid 0 level9Params 
R000000001012 n00000000101mid n00000000101 {level9R}
R00000000111 n000000001 n0000000011mid {level8R}
yneuron neuron0000000011 n0000000011mid 0 level8Params 
R00000000112 n0000000011mid n0000000011 {level8R}
R000000001101 n0000000011 n00000000110mid {level9R}
yneuron neuron00000000110 n00000000110mid 0 level9Params 
R000000001102 n00000000110mid n00000000110 {level9R}
R000000001111 n0000000011 n00000000111mid {level9R}
yneuron neuron00000000111 n00000000111mid 0 level9Params 
R000000001112 n00000000111mid n00000000111 {level9R}
R000000011 n0000000 n00000001mid {level6R}
yneuron neuron00000001 n00000001mid 0 level6Params 
R000000012 n00000001mid n00000001 {level6R}
R0000000101 n00000001 n000000010mid {level7R}
yneuron neuron000000010 n000000010mid 0 level7Params 
R0000000102 n000000010mid n000000010 {level7R}
R00000001001 n000000010 n0000000100mid {level8R}
yneuron neuron0000000100 n0000000100mid 0 level8Params 
R00000001002 n0000000100mid n0000000100 {level8R}
R000000010001 n0000000100 n00000001000mid {level9R}
yneuron neuron00000001000 n00000001000mid 0 level9Params 
R000000010002 n00000001000mid n00000001000 {level9R}
R000000010011 n0000000100 n00000001001mid {level9R}
yneuron neuron00000001001 n00000001001mid 0 level9Params 
R000000010012 n00000001001mid n00000001001 {level9R}
R00000001011 n000000010 n0000000101mid {level8R}
yneuron neuron0000000101 n0000000101mid 0 level8Params 
R00000001012 n0000000101mid n0000000101 {level8R}
R000000010101 n0000000101 n00000001010mid {level9R}
yneuron neuron00000001010 n00000001010mid 0 level9Params 
R000000010102 n00000001010mid n00000001010 {level9R}
R000000010111 n0000000101 n00000001011mid {level9R}
yneuron neuron00000001011 n00000001011mid 0 level9Params 
R000000010112 n00000001011mid n00000001011 {level9R}
R0000000111 n00000001 n000000011mid {level7R}
yneuron neuron000000011 n000000011mid 0 level7Params 
R0000000112 n000000011mid n000000011 {level7R}
R00000001101 n000000011 n0000000110mid {level8R}
yneuron neuron0000000110 n0000000110mid 0 level8Params 
R00000001102 n0000000110mid n0000000110 {level8R}
R000000011001 n0000000110 n00000001100mid {level9R}
yneuron neuron00000001100 n00000001100mid 0 level9Params 
R000000011002 n00000001100mid n00000001100 {level9R}
R000000011011 n0000000110 n00000001101mid {level9R}
yneuron neuron00000001101 n00000001101mid 0 level9Params 
R000000011012 n00000001101mid n00000001101 {level9R}
R00000001111 n000000011 n0000000111mid {level8R}
yneuron neuron0000000111 n0000000111mid 0 level8Params 
R00000001112 n0000000111mid n0000000111 {level8R}
R000000011101 n0000000111 n00000001110mid {level9R}
yneuron neuron00000001110 n00000001110mid 0 level9Params 
R000000011102 n00000001110mid n00000001110 {level9R}
R000000011111 n0000000111 n00000001111mid {level9R}
yneuron neuron00000001111 n00000001111mid 0 level9Params 
R000000011112 n00000001111mid n00000001111 {level9R}
R00000011 n000000 n0000001mid {level5R}
yneuron neuron0000001 n0000001mid 0 level5Params 
R00000012 n0000001mid n0000001 {level5R}
R000000101 n0000001 n00000010mid {level6R}
yneuron neuron00000010 n00000010mid 0 level6Params 
R000000102 n00000010mid n00000010 {level6R}
R0000001001 n00000010 n000000100mid {level7R}
yneuron neuron000000100 n000000100mid 0 level7Params 
R0000001002 n000000100mid n000000100 {level7R}
R00000010001 n000000100 n0000001000mid {level8R}
yneuron neuron0000001000 n0000001000mid 0 level8Params 
R00000010002 n0000001000mid n0000001000 {level8R}
R000000100001 n0000001000 n00000010000mid {level9R}
yneuron neuron00000010000 n00000010000mid 0 level9Params 
R000000100002 n00000010000mid n00000010000 {level9R}
R000000100011 n0000001000 n00000010001mid {level9R}
yneuron neuron00000010001 n00000010001mid 0 level9Params 
R000000100012 n00000010001mid n00000010001 {level9R}
R00000010011 n000000100 n0000001001mid {level8R}
yneuron neuron0000001001 n0000001001mid 0 level8Params 
R00000010012 n0000001001mid n0000001001 {level8R}
R000000100101 n0000001001 n00000010010mid {level9R}
yneuron neuron00000010010 n00000010010mid 0 level9Params 
R000000100102 n00000010010mid n00000010010 {level9R}
R000000100111 n0000001001 n00000010011mid {level9R}
yneuron neuron00000010011 n00000010011mid 0 level9Params 
R000000100112 n00000010011mid n00000010011 {level9R}
R0000001011 n00000010 n000000101mid {level7R}
yneuron neuron000000101 n000000101mid 0 level7Params 
R0000001012 n000000101mid n000000101 {level7R}
R00000010101 n000000101 n0000001010mid {level8R}
yneuron neuron0000001010 n0000001010mid 0 level8Params 
R00000010102 n0000001010mid n0000001010 {level8R}
R000000101001 n0000001010 n00000010100mid {level9R}
yneuron neuron00000010100 n00000010100mid 0 level9Params 
R000000101002 n00000010100mid n00000010100 {level9R}
R000000101011 n0000001010 n00000010101mid {level9R}
yneuron neuron00000010101 n00000010101mid 0 level9Params 
R000000101012 n00000010101mid n00000010101 {level9R}
R00000010111 n000000101 n0000001011mid {level8R}
yneuron neuron0000001011 n0000001011mid 0 level8Params 
R00000010112 n0000001011mid n0000001011 {level8R}
R000000101101 n0000001011 n00000010110mid {level9R}
yneuron neuron00000010110 n00000010110mid 0 level9Params 
R000000101102 n00000010110mid n00000010110 {level9R}
R000000101111 n0000001011 n00000010111mid {level9R}
yneuron neuron00000010111 n00000010111mid 0 level9Params 
R000000101112 n00000010111mid n00000010111 {level9R}
R000000111 n0000001 n00000011mid {level6R}
yneuron neuron00000011 n00000011mid 0 level6Params 
R000000112 n00000011mid n00000011 {level6R}
R0000001101 n00000011 n000000110mid {level7R}
yneuron neuron000000110 n000000110mid 0 level7Params 
R0000001102 n000000110mid n000000110 {level7R}
R00000011001 n000000110 n0000001100mid {level8R}
yneuron neuron0000001100 n0000001100mid 0 level8Params 
R00000011002 n0000001100mid n0000001100 {level8R}
R000000110001 n0000001100 n00000011000mid {level9R}
yneuron neuron00000011000 n00000011000mid 0 level9Params 
R000000110002 n00000011000mid n00000011000 {level9R}
R000000110011 n0000001100 n00000011001mid {level9R}
yneuron neuron00000011001 n00000011001mid 0 level9Params 
R000000110012 n00000011001mid n00000011001 {level9R}
R00000011011 n000000110 n0000001101mid {level8R}
yneuron neuron0000001101 n0000001101mid 0 level8Params 
R00000011012 n0000001101mid n0000001101 {level8R}
R000000110101 n0000001101 n00000011010mid {level9R}
yneuron neuron00000011010 n00000011010mid 0 level9Params 
R000000110102 n00000011010mid n00000011010 {level9R}
R000000110111 n0000001101 n00000011011mid {level9R}
yneuron neuron00000011011 n00000011011mid 0 level9Params 
R000000110112 n00000011011mid n00000011011 {level9R}
R0000001111 n00000011 n000000111mid {level7R}
yneuron neuron000000111 n000000111mid 0 level7Params 
R0000001112 n000000111mid n000000111 {level7R}
R00000011101 n000000111 n0000001110mid {level8R}
yneuron neuron0000001110 n0000001110mid 0 level8Params 
R00000011102 n0000001110mid n0000001110 {level8R}
R000000111001 n0000001110 n00000011100mid {level9R}
yneuron neuron00000011100 n00000011100mid 0 level9Params 
R000000111002 n00000011100mid n00000011100 {level9R}
R000000111011 n0000001110 n00000011101mid {level9R}
yneuron neuron00000011101 n00000011101mid 0 level9Params 
R000000111012 n00000011101mid n00000011101 {level9R}
R00000011111 n000000111 n0000001111mid {level8R}
yneuron neuron0000001111 n0000001111mid 0 level8Params 
R00000011112 n0000001111mid n0000001111 {level8R}
R000000111101 n0000001111 n00000011110mid {level9R}
yneuron neuron00000011110 n00000011110mid 0 level9Params 
R000000111102 n00000011110mid n00000011110 {level9R}
R000000111111 n0000001111 n00000011111mid {level9R}
yneuron neuron00000011111 n00000011111mid 0 level9Params 
R000000111112 n00000011111mid n00000011111 {level9R}
R0000011 n00000 n000001mid {level4R}
yneuron neuron000001 n000001mid 0 level4Params 
R0000012 n000001mid n000001 {level4R}
R00000101 n000001 n0000010mid {level5R}
yneuron neuron0000010 n0000010mid 0 level5Params 
R00000102 n0000010mid n0000010 {level5R}
R000001001 n0000010 n00000100mid {level6R}
yneuron neuron00000100 n00000100mid 0 level6Params 
R000001002 n00000100mid n00000100 {level6R}
R0000010001 n00000100 n000001000mid {level7R}
yneuron neuron000001000 n000001000mid 0 level7Params 
R0000010002 n000001000mid n000001000 {level7R}
R00000100001 n000001000 n0000010000mid {level8R}
yneuron neuron0000010000 n0000010000mid 0 level8Params 
R00000100002 n0000010000mid n0000010000 {level8R}
R000001000001 n0000010000 n00000100000mid {level9R}
yneuron neuron00000100000 n00000100000mid 0 level9Params 
R000001000002 n00000100000mid n00000100000 {level9R}
R000001000011 n0000010000 n00000100001mid {level9R}
yneuron neuron00000100001 n00000100001mid 0 level9Params 
R000001000012 n00000100001mid n00000100001 {level9R}
R00000100011 n000001000 n0000010001mid {level8R}
yneuron neuron0000010001 n0000010001mid 0 level8Params 
R00000100012 n0000010001mid n0000010001 {level8R}
R000001000101 n0000010001 n00000100010mid {level9R}
yneuron neuron00000100010 n00000100010mid 0 level9Params 
R000001000102 n00000100010mid n00000100010 {level9R}
R000001000111 n0000010001 n00000100011mid {level9R}
yneuron neuron00000100011 n00000100011mid 0 level9Params 
R000001000112 n00000100011mid n00000100011 {level9R}
R0000010011 n00000100 n000001001mid {level7R}
yneuron neuron000001001 n000001001mid 0 level7Params 
R0000010012 n000001001mid n000001001 {level7R}
R00000100101 n000001001 n0000010010mid {level8R}
yneuron neuron0000010010 n0000010010mid 0 level8Params 
R00000100102 n0000010010mid n0000010010 {level8R}
R000001001001 n0000010010 n00000100100mid {level9R}
yneuron neuron00000100100 n00000100100mid 0 level9Params 
R000001001002 n00000100100mid n00000100100 {level9R}
R000001001011 n0000010010 n00000100101mid {level9R}
yneuron neuron00000100101 n00000100101mid 0 level9Params 
R000001001012 n00000100101mid n00000100101 {level9R}
R00000100111 n000001001 n0000010011mid {level8R}
yneuron neuron0000010011 n0000010011mid 0 level8Params 
R00000100112 n0000010011mid n0000010011 {level8R}
R000001001101 n0000010011 n00000100110mid {level9R}
yneuron neuron00000100110 n00000100110mid 0 level9Params 
R000001001102 n00000100110mid n00000100110 {level9R}
R000001001111 n0000010011 n00000100111mid {level9R}
yneuron neuron00000100111 n00000100111mid 0 level9Params 
R000001001112 n00000100111mid n00000100111 {level9R}
R000001011 n0000010 n00000101mid {level6R}
yneuron neuron00000101 n00000101mid 0 level6Params 
R000001012 n00000101mid n00000101 {level6R}
R0000010101 n00000101 n000001010mid {level7R}
yneuron neuron000001010 n000001010mid 0 level7Params 
R0000010102 n000001010mid n000001010 {level7R}
R00000101001 n000001010 n0000010100mid {level8R}
yneuron neuron0000010100 n0000010100mid 0 level8Params 
R00000101002 n0000010100mid n0000010100 {level8R}
R000001010001 n0000010100 n00000101000mid {level9R}
yneuron neuron00000101000 n00000101000mid 0 level9Params 
R000001010002 n00000101000mid n00000101000 {level9R}
R000001010011 n0000010100 n00000101001mid {level9R}
yneuron neuron00000101001 n00000101001mid 0 level9Params 
R000001010012 n00000101001mid n00000101001 {level9R}
R00000101011 n000001010 n0000010101mid {level8R}
yneuron neuron0000010101 n0000010101mid 0 level8Params 
R00000101012 n0000010101mid n0000010101 {level8R}
R000001010101 n0000010101 n00000101010mid {level9R}
yneuron neuron00000101010 n00000101010mid 0 level9Params 
R000001010102 n00000101010mid n00000101010 {level9R}
R000001010111 n0000010101 n00000101011mid {level9R}
yneuron neuron00000101011 n00000101011mid 0 level9Params 
R000001010112 n00000101011mid n00000101011 {level9R}
R0000010111 n00000101 n000001011mid {level7R}
yneuron neuron000001011 n000001011mid 0 level7Params 
R0000010112 n000001011mid n000001011 {level7R}
R00000101101 n000001011 n0000010110mid {level8R}
yneuron neuron0000010110 n0000010110mid 0 level8Params 
R00000101102 n0000010110mid n0000010110 {level8R}
R000001011001 n0000010110 n00000101100mid {level9R}
yneuron neuron00000101100 n00000101100mid 0 level9Params 
R000001011002 n00000101100mid n00000101100 {level9R}
R000001011011 n0000010110 n00000101101mid {level9R}
yneuron neuron00000101101 n00000101101mid 0 level9Params 
R000001011012 n00000101101mid n00000101101 {level9R}
R00000101111 n000001011 n0000010111mid {level8R}
yneuron neuron0000010111 n0000010111mid 0 level8Params 
R00000101112 n0000010111mid n0000010111 {level8R}
R000001011101 n0000010111 n00000101110mid {level9R}
yneuron neuron00000101110 n00000101110mid 0 level9Params 
R000001011102 n00000101110mid n00000101110 {level9R}
R000001011111 n0000010111 n00000101111mid {level9R}
yneuron neuron00000101111 n00000101111mid 0 level9Params 
R000001011112 n00000101111mid n00000101111 {level9R}
R00000111 n000001 n0000011mid {level5R}
yneuron neuron0000011 n0000011mid 0 level5Params 
R00000112 n0000011mid n0000011 {level5R}
R000001101 n0000011 n00000110mid {level6R}
yneuron neuron00000110 n00000110mid 0 level6Params 
R000001102 n00000110mid n00000110 {level6R}
R0000011001 n00000110 n000001100mid {level7R}
yneuron neuron000001100 n000001100mid 0 level7Params 
R0000011002 n000001100mid n000001100 {level7R}
R00000110001 n000001100 n0000011000mid {level8R}
yneuron neuron0000011000 n0000011000mid 0 level8Params 
R00000110002 n0000011000mid n0000011000 {level8R}
R000001100001 n0000011000 n00000110000mid {level9R}
yneuron neuron00000110000 n00000110000mid 0 level9Params 
R000001100002 n00000110000mid n00000110000 {level9R}
R000001100011 n0000011000 n00000110001mid {level9R}
yneuron neuron00000110001 n00000110001mid 0 level9Params 
R000001100012 n00000110001mid n00000110001 {level9R}
R00000110011 n000001100 n0000011001mid {level8R}
yneuron neuron0000011001 n0000011001mid 0 level8Params 
R00000110012 n0000011001mid n0000011001 {level8R}
R000001100101 n0000011001 n00000110010mid {level9R}
yneuron neuron00000110010 n00000110010mid 0 level9Params 
R000001100102 n00000110010mid n00000110010 {level9R}
R000001100111 n0000011001 n00000110011mid {level9R}
yneuron neuron00000110011 n00000110011mid 0 level9Params 
R000001100112 n00000110011mid n00000110011 {level9R}
R0000011011 n00000110 n000001101mid {level7R}
yneuron neuron000001101 n000001101mid 0 level7Params 
R0000011012 n000001101mid n000001101 {level7R}
R00000110101 n000001101 n0000011010mid {level8R}
yneuron neuron0000011010 n0000011010mid 0 level8Params 
R00000110102 n0000011010mid n0000011010 {level8R}
R000001101001 n0000011010 n00000110100mid {level9R}
yneuron neuron00000110100 n00000110100mid 0 level9Params 
R000001101002 n00000110100mid n00000110100 {level9R}
R000001101011 n0000011010 n00000110101mid {level9R}
yneuron neuron00000110101 n00000110101mid 0 level9Params 
R000001101012 n00000110101mid n00000110101 {level9R}
R00000110111 n000001101 n0000011011mid {level8R}
yneuron neuron0000011011 n0000011011mid 0 level8Params 
R00000110112 n0000011011mid n0000011011 {level8R}
R000001101101 n0000011011 n00000110110mid {level9R}
yneuron neuron00000110110 n00000110110mid 0 level9Params 
R000001101102 n00000110110mid n00000110110 {level9R}
R000001101111 n0000011011 n00000110111mid {level9R}
yneuron neuron00000110111 n00000110111mid 0 level9Params 
R000001101112 n00000110111mid n00000110111 {level9R}
R000001111 n0000011 n00000111mid {level6R}
yneuron neuron00000111 n00000111mid 0 level6Params 
R000001112 n00000111mid n00000111 {level6R}
R0000011101 n00000111 n000001110mid {level7R}
yneuron neuron000001110 n000001110mid 0 level7Params 
R0000011102 n000001110mid n000001110 {level7R}
R00000111001 n000001110 n0000011100mid {level8R}
yneuron neuron0000011100 n0000011100mid 0 level8Params 
R00000111002 n0000011100mid n0000011100 {level8R}
R000001110001 n0000011100 n00000111000mid {level9R}
yneuron neuron00000111000 n00000111000mid 0 level9Params 
R000001110002 n00000111000mid n00000111000 {level9R}
R000001110011 n0000011100 n00000111001mid {level9R}
yneuron neuron00000111001 n00000111001mid 0 level9Params 
R000001110012 n00000111001mid n00000111001 {level9R}
R00000111011 n000001110 n0000011101mid {level8R}
yneuron neuron0000011101 n0000011101mid 0 level8Params 
R00000111012 n0000011101mid n0000011101 {level8R}
R000001110101 n0000011101 n00000111010mid {level9R}
yneuron neuron00000111010 n00000111010mid 0 level9Params 
R000001110102 n00000111010mid n00000111010 {level9R}
R000001110111 n0000011101 n00000111011mid {level9R}
yneuron neuron00000111011 n00000111011mid 0 level9Params 
R000001110112 n00000111011mid n00000111011 {level9R}
R0000011111 n00000111 n000001111mid {level7R}
yneuron neuron000001111 n000001111mid 0 level7Params 
R0000011112 n000001111mid n000001111 {level7R}
R00000111101 n000001111 n0000011110mid {level8R}
yneuron neuron0000011110 n0000011110mid 0 level8Params 
R00000111102 n0000011110mid n0000011110 {level8R}
R000001111001 n0000011110 n00000111100mid {level9R}
yneuron neuron00000111100 n00000111100mid 0 level9Params 
R000001111002 n00000111100mid n00000111100 {level9R}
R000001111011 n0000011110 n00000111101mid {level9R}
yneuron neuron00000111101 n00000111101mid 0 level9Params 
R000001111012 n00000111101mid n00000111101 {level9R}
R00000111111 n000001111 n0000011111mid {level8R}
yneuron neuron0000011111 n0000011111mid 0 level8Params 
R00000111112 n0000011111mid n0000011111 {level8R}
R000001111101 n0000011111 n00000111110mid {level9R}
yneuron neuron00000111110 n00000111110mid 0 level9Params 
R000001111102 n00000111110mid n00000111110 {level9R}
R000001111111 n0000011111 n00000111111mid {level9R}
yneuron neuron00000111111 n00000111111mid 0 level9Params 
R000001111112 n00000111111mid n00000111111 {level9R}
R000011 n0000 n00001mid {level3R}
yneuron neuron00001 n00001mid 0 level3Params 
R000012 n00001mid n00001 {level3R}
R0000101 n00001 n000010mid {level4R}
yneuron neuron000010 n000010mid 0 level4Params 
R0000102 n000010mid n000010 {level4R}
R00001001 n000010 n0000100mid {level5R}
yneuron neuron0000100 n0000100mid 0 level5Params 
R00001002 n0000100mid n0000100 {level5R}
R000010001 n0000100 n00001000mid {level6R}
yneuron neuron00001000 n00001000mid 0 level6Params 
R000010002 n00001000mid n00001000 {level6R}
R0000100001 n00001000 n000010000mid {level7R}
yneuron neuron000010000 n000010000mid 0 level7Params 
R0000100002 n000010000mid n000010000 {level7R}
R00001000001 n000010000 n0000100000mid {level8R}
yneuron neuron0000100000 n0000100000mid 0 level8Params 
R00001000002 n0000100000mid n0000100000 {level8R}
R000010000001 n0000100000 n00001000000mid {level9R}
yneuron neuron00001000000 n00001000000mid 0 level9Params 
R000010000002 n00001000000mid n00001000000 {level9R}
R000010000011 n0000100000 n00001000001mid {level9R}
yneuron neuron00001000001 n00001000001mid 0 level9Params 
R000010000012 n00001000001mid n00001000001 {level9R}
R00001000011 n000010000 n0000100001mid {level8R}
yneuron neuron0000100001 n0000100001mid 0 level8Params 
R00001000012 n0000100001mid n0000100001 {level8R}
R000010000101 n0000100001 n00001000010mid {level9R}
yneuron neuron00001000010 n00001000010mid 0 level9Params 
R000010000102 n00001000010mid n00001000010 {level9R}
R000010000111 n0000100001 n00001000011mid {level9R}
yneuron neuron00001000011 n00001000011mid 0 level9Params 
R000010000112 n00001000011mid n00001000011 {level9R}
R0000100011 n00001000 n000010001mid {level7R}
yneuron neuron000010001 n000010001mid 0 level7Params 
R0000100012 n000010001mid n000010001 {level7R}
R00001000101 n000010001 n0000100010mid {level8R}
yneuron neuron0000100010 n0000100010mid 0 level8Params 
R00001000102 n0000100010mid n0000100010 {level8R}
R000010001001 n0000100010 n00001000100mid {level9R}
yneuron neuron00001000100 n00001000100mid 0 level9Params 
R000010001002 n00001000100mid n00001000100 {level9R}
R000010001011 n0000100010 n00001000101mid {level9R}
yneuron neuron00001000101 n00001000101mid 0 level9Params 
R000010001012 n00001000101mid n00001000101 {level9R}
R00001000111 n000010001 n0000100011mid {level8R}
yneuron neuron0000100011 n0000100011mid 0 level8Params 
R00001000112 n0000100011mid n0000100011 {level8R}
R000010001101 n0000100011 n00001000110mid {level9R}
yneuron neuron00001000110 n00001000110mid 0 level9Params 
R000010001102 n00001000110mid n00001000110 {level9R}
R000010001111 n0000100011 n00001000111mid {level9R}
yneuron neuron00001000111 n00001000111mid 0 level9Params 
R000010001112 n00001000111mid n00001000111 {level9R}
R000010011 n0000100 n00001001mid {level6R}
yneuron neuron00001001 n00001001mid 0 level6Params 
R000010012 n00001001mid n00001001 {level6R}
R0000100101 n00001001 n000010010mid {level7R}
yneuron neuron000010010 n000010010mid 0 level7Params 
R0000100102 n000010010mid n000010010 {level7R}
R00001001001 n000010010 n0000100100mid {level8R}
yneuron neuron0000100100 n0000100100mid 0 level8Params 
R00001001002 n0000100100mid n0000100100 {level8R}
R000010010001 n0000100100 n00001001000mid {level9R}
yneuron neuron00001001000 n00001001000mid 0 level9Params 
R000010010002 n00001001000mid n00001001000 {level9R}
R000010010011 n0000100100 n00001001001mid {level9R}
yneuron neuron00001001001 n00001001001mid 0 level9Params 
R000010010012 n00001001001mid n00001001001 {level9R}
R00001001011 n000010010 n0000100101mid {level8R}
yneuron neuron0000100101 n0000100101mid 0 level8Params 
R00001001012 n0000100101mid n0000100101 {level8R}
R000010010101 n0000100101 n00001001010mid {level9R}
yneuron neuron00001001010 n00001001010mid 0 level9Params 
R000010010102 n00001001010mid n00001001010 {level9R}
R000010010111 n0000100101 n00001001011mid {level9R}
yneuron neuron00001001011 n00001001011mid 0 level9Params 
R000010010112 n00001001011mid n00001001011 {level9R}
R0000100111 n00001001 n000010011mid {level7R}
yneuron neuron000010011 n000010011mid 0 level7Params 
R0000100112 n000010011mid n000010011 {level7R}
R00001001101 n000010011 n0000100110mid {level8R}
yneuron neuron0000100110 n0000100110mid 0 level8Params 
R00001001102 n0000100110mid n0000100110 {level8R}
R000010011001 n0000100110 n00001001100mid {level9R}
yneuron neuron00001001100 n00001001100mid 0 level9Params 
R000010011002 n00001001100mid n00001001100 {level9R}
R000010011011 n0000100110 n00001001101mid {level9R}
yneuron neuron00001001101 n00001001101mid 0 level9Params 
R000010011012 n00001001101mid n00001001101 {level9R}
R00001001111 n000010011 n0000100111mid {level8R}
yneuron neuron0000100111 n0000100111mid 0 level8Params 
R00001001112 n0000100111mid n0000100111 {level8R}
R000010011101 n0000100111 n00001001110mid {level9R}
yneuron neuron00001001110 n00001001110mid 0 level9Params 
R000010011102 n00001001110mid n00001001110 {level9R}
R000010011111 n0000100111 n00001001111mid {level9R}
yneuron neuron00001001111 n00001001111mid 0 level9Params 
R000010011112 n00001001111mid n00001001111 {level9R}
R00001011 n000010 n0000101mid {level5R}
yneuron neuron0000101 n0000101mid 0 level5Params 
R00001012 n0000101mid n0000101 {level5R}
R000010101 n0000101 n00001010mid {level6R}
yneuron neuron00001010 n00001010mid 0 level6Params 
R000010102 n00001010mid n00001010 {level6R}
R0000101001 n00001010 n000010100mid {level7R}
yneuron neuron000010100 n000010100mid 0 level7Params 
R0000101002 n000010100mid n000010100 {level7R}
R00001010001 n000010100 n0000101000mid {level8R}
yneuron neuron0000101000 n0000101000mid 0 level8Params 
R00001010002 n0000101000mid n0000101000 {level8R}
R000010100001 n0000101000 n00001010000mid {level9R}
yneuron neuron00001010000 n00001010000mid 0 level9Params 
R000010100002 n00001010000mid n00001010000 {level9R}
R000010100011 n0000101000 n00001010001mid {level9R}
yneuron neuron00001010001 n00001010001mid 0 level9Params 
R000010100012 n00001010001mid n00001010001 {level9R}
R00001010011 n000010100 n0000101001mid {level8R}
yneuron neuron0000101001 n0000101001mid 0 level8Params 
R00001010012 n0000101001mid n0000101001 {level8R}
R000010100101 n0000101001 n00001010010mid {level9R}
yneuron neuron00001010010 n00001010010mid 0 level9Params 
R000010100102 n00001010010mid n00001010010 {level9R}
R000010100111 n0000101001 n00001010011mid {level9R}
yneuron neuron00001010011 n00001010011mid 0 level9Params 
R000010100112 n00001010011mid n00001010011 {level9R}
R0000101011 n00001010 n000010101mid {level7R}
yneuron neuron000010101 n000010101mid 0 level7Params 
R0000101012 n000010101mid n000010101 {level7R}
R00001010101 n000010101 n0000101010mid {level8R}
yneuron neuron0000101010 n0000101010mid 0 level8Params 
R00001010102 n0000101010mid n0000101010 {level8R}
R000010101001 n0000101010 n00001010100mid {level9R}
yneuron neuron00001010100 n00001010100mid 0 level9Params 
R000010101002 n00001010100mid n00001010100 {level9R}
R000010101011 n0000101010 n00001010101mid {level9R}