cable simulation - rallpack 1 with 1000 level 1 neurons


.tran 0 0.25  
.options output initial_interval=5.0e-5
.options timeint method=7 newlte=1 newbpstepping=1 reltol=1e-3
.options linsol type=klu

* rallpack 1 calls for a steady current input.  But we need to use PULSE so
* that the current will be off during dcop calculation
Iin 0 in0 PULSE( 0 1.0e-10 1.0e-12 0.0 0.0 1.0e10 1.0e10)

* cable is 1mm long and 1 micron in diameter
* 1000 segments, each 1 micron long and 1 micron in diameter
.param nSeg = 1000
.param segLength = 1.0e-4     ; [cm]
.param segDiameter = 1.0e-4   ; [cm]
.param segSurfaceArea = { 3.14159 * segDiameter * segLength }

* specific membrane capacitance 1uF/cm^2 
.param memC = { 1.0e-6 * segSurfaceArea } ; [F]

* leak current has membrane resistivity of 40,000 ohm cm^2, with reversal potential of -65mV
.param rm = { 4.0e4 / segSurfaceArea }    ; [ohm]
.param memG = { 1 / rm }                  ; [1/ohm]
.param revE = -0.065                      ; [V]

* no active conductances, so set g values to 0; E values don't matter
.param gks  = 0.0
.param gnas = 0.0

* neuron model
.model segParams neuron level=1 cMem={memC}  gMem={memG} eLeak={revE}  gNa={gnas}  gK={gks} vRest={revE}

* segments are connected by a resistor; axial resistance is 4*Ra*l/(pi*d^2); Ra for rallpack 1 is 100 ohm cm
* if segments were different, we'd want two resistors between each pair of segments to handle the differences, but here it doesnt' matter
.param Ra = 100.0
.param rInterSeg = { 4 * Ra * segLength / ( 3.14159 * segDiameter * segDiameter ) }

* here is how we define one neuron
* yneuron neuron1 in1 0 segParams

* loop below creates a resistor between each pair of neuron devices, which means one less resistor than compartments
* add a resistor with resistivity for half a compartment at each end of the cable
* this is the first one
R01 in0 in1 {rInterSeg/2.0} 
 
  
yneuron neuron1 in1 0 segParams
R12 in1 in2 {rInterSeg}
yneuron neuron2 in2 0 segParams
R23 in2 in3 {rInterSeg}
yneuron neuron3 in3 0 segParams
R34 in3 in4 {rInterSeg}
yneuron neuron4 in4 0 segParams
R45 in4 in5 {rInterSeg}
yneuron neuron5 in5 0 segParams
R56 in5 in6 {rInterSeg}
yneuron neuron6 in6 0 segParams
R67 in6 in7 {rInterSeg}
yneuron neuron7 in7 0 segParams
R78 in7 in8 {rInterSeg}
yneuron neuron8 in8 0 segParams
R89 in8 in9 {rInterSeg}
yneuron neuron9 in9 0 segParams
R910 in9 in10 {rInterSeg}
yneuron neuron10 in10 0 segParams
R1011 in10 in11 {rInterSeg}
yneuron neuron11 in11 0 segParams
R1112 in11 in12 {rInterSeg}
yneuron neuron12 in12 0 segParams
R1213 in12 in13 {rInterSeg}
yneuron neuron13 in13 0 segParams
R1314 in13 in14 {rInterSeg}
yneuron neuron14 in14 0 segParams
R1415 in14 in15 {rInterSeg}
yneuron neuron15 in15 0 segParams
R1516 in15 in16 {rInterSeg}
yneuron neuron16 in16 0 segParams
R1617 in16 in17 {rInterSeg}
yneuron neuron17 in17 0 segParams
R1718 in17 in18 {rInterSeg}
yneuron neuron18 in18 0 segParams
R1819 in18 in19 {rInterSeg}
yneuron neuron19 in19 0 segParams
R1920 in19 in20 {rInterSeg}
yneuron neuron20 in20 0 segParams
R2021 in20 in21 {rInterSeg}
yneuron neuron21 in21 0 segParams
R2122 in21 in22 {rInterSeg}
yneuron neuron22 in22 0 segParams
R2223 in22 in23 {rInterSeg}
yneuron neuron23 in23 0 segParams
R2324 in23 in24 {rInterSeg}
yneuron neuron24 in24 0 segParams
R2425 in24 in25 {rInterSeg}
yneuron neuron25 in25 0 segParams
R2526 in25 in26 {rInterSeg}
yneuron neuron26 in26 0 segParams
R2627 in26 in27 {rInterSeg}
yneuron neuron27 in27 0 segParams
R2728 in27 in28 {rInterSeg}
yneuron neuron28 in28 0 segParams
R2829 in28 in29 {rInterSeg}
yneuron neuron29 in29 0 segParams
R2930 in29 in30 {rInterSeg}
yneuron neuron30 in30 0 segParams
R3031 in30 in31 {rInterSeg}
yneuron neuron31 in31 0 segParams
R3132 in31 in32 {rInterSeg}
yneuron neuron32 in32 0 segParams
R3233 in32 in33 {rInterSeg}
yneuron neuron33 in33 0 segParams
R3334 in33 in34 {rInterSeg}
yneuron neuron34 in34 0 segParams
R3435 in34 in35 {rInterSeg}
yneuron neuron35 in35 0 segParams
R3536 in35 in36 {rInterSeg}
yneuron neuron36 in36 0 segParams
R3637 in36 in37 {rInterSeg}
yneuron neuron37 in37 0 segParams
R3738 in37 in38 {rInterSeg}
yneuron neuron38 in38 0 segParams
R3839 in38 in39 {rInterSeg}
yneuron neuron39 in39 0 segParams
R3940 in39 in40 {rInterSeg}
yneuron neuron40 in40 0 segParams
R4041 in40 in41 {rInterSeg}
yneuron neuron41 in41 0 segParams
R4142 in41 in42 {rInterSeg}
yneuron neuron42 in42 0 segParams
R4243 in42 in43 {rInterSeg}
yneuron neuron43 in43 0 segParams
R4344 in43 in44 {rInterSeg}
yneuron neuron44 in44 0 segParams
R4445 in44 in45 {rInterSeg}
yneuron neuron45 in45 0 segParams
R4546 in45 in46 {rInterSeg}
yneuron neuron46 in46 0 segParams
R4647 in46 in47 {rInterSeg}
yneuron neuron47 in47 0 segParams
R4748 in47 in48 {rInterSeg}
yneuron neuron48 in48 0 segParams
R4849 in48 in49 {rInterSeg}
yneuron neuron49 in49 0 segParams
R4950 in49 in50 {rInterSeg}
yneuron neuron50 in50 0 segParams
R5051 in50 in51 {rInterSeg}
yneuron neuron51 in51 0 segParams
R5152 in51 in52 {rInterSeg}
yneuron neuron52 in52 0 segParams
R5253 in52 in53 {rInterSeg}
yneuron neuron53 in53 0 segParams
R5354 in53 in54 {rInterSeg}
yneuron neuron54 in54 0 segParams
R5455 in54 in55 {rInterSeg}
yneuron neuron55 in55 0 segParams
R5556 in55 in56 {rInterSeg}
yneuron neuron56 in56 0 segParams
R5657 in56 in57 {rInterSeg}
yneuron neuron57 in57 0 segParams
R5758 in57 in58 {rInterSeg}
yneuron neuron58 in58 0 segParams
R5859 in58 in59 {rInterSeg}
yneuron neuron59 in59 0 segParams
R5960 in59 in60 {rInterSeg}
yneuron neuron60 in60 0 segParams
R6061 in60 in61 {rInterSeg}
yneuron neuron61 in61 0 segParams
R6162 in61 in62 {rInterSeg}
yneuron neuron62 in62 0 segParams
R6263 in62 in63 {rInterSeg}
yneuron neuron63 in63 0 segParams
R6364 in63 in64 {rInterSeg}
yneuron neuron64 in64 0 segParams
R6465 in64 in65 {rInterSeg}
yneuron neuron65 in65 0 segParams
R6566 in65 in66 {rInterSeg}
yneuron neuron66 in66 0 segParams
R6667 in66 in67 {rInterSeg}
yneuron neuron67 in67 0 segParams
R6768 in67 in68 {rInterSeg}
yneuron neuron68 in68 0 segParams
R6869 in68 in69 {rInterSeg}
yneuron neuron69 in69 0 segParams
R6970 in69 in70 {rInterSeg}
yneuron neuron70 in70 0 segParams
R7071 in70 in71 {rInterSeg}
yneuron neuron71 in71 0 segParams
R7172 in71 in72 {rInterSeg}
yneuron neuron72 in72 0 segParams
R7273 in72 in73 {rInterSeg}
yneuron neuron73 in73 0 segParams
R7374 in73 in74 {rInterSeg}
yneuron neuron74 in74 0 segParams
R7475 in74 in75 {rInterSeg}
yneuron neuron75 in75 0 segParams
R7576 in75 in76 {rInterSeg}
yneuron neuron76 in76 0 segParams
R7677 in76 in77 {rInterSeg}
yneuron neuron77 in77 0 segParams
R7778 in77 in78 {rInterSeg}
yneuron neuron78 in78 0 segParams
R7879 in78 in79 {rInterSeg}
yneuron neuron79 in79 0 segParams
R7980 in79 in80 {rInterSeg}
yneuron neuron80 in80 0 segParams
R8081 in80 in81 {rInterSeg}
yneuron neuron81 in81 0 segParams
R8182 in81 in82 {rInterSeg}
yneuron neuron82 in82 0 segParams
R8283 in82 in83 {rInterSeg}
yneuron neuron83 in83 0 segParams
R8384 in83 in84 {rInterSeg}
yneuron neuron84 in84 0 segParams
R8485 in84 in85 {rInterSeg}
yneuron neuron85 in85 0 segParams
R8586 in85 in86 {rInterSeg}
yneuron neuron86 in86 0 segParams
R8687 in86 in87 {rInterSeg}
yneuron neuron87 in87 0 segParams
R8788 in87 in88 {rInterSeg}
yneuron neuron88 in88 0 segParams
R8889 in88 in89 {rInterSeg}
yneuron neuron89 in89 0 segParams
R8990 in89 in90 {rInterSeg}
yneuron neuron90 in90 0 segParams
R9091 in90 in91 {rInterSeg}
yneuron neuron91 in91 0 segParams
R9192 in91 in92 {rInterSeg}
yneuron neuron92 in92 0 segParams
R9293 in92 in93 {rInterSeg}
yneuron neuron93 in93 0 segParams
R9394 in93 in94 {rInterSeg}
yneuron neuron94 in94 0 segParams
R9495 in94 in95 {rInterSeg}
yneuron neuron95 in95 0 segParams
R9596 in95 in96 {rInterSeg}
yneuron neuron96 in96 0 segParams
R9697 in96 in97 {rInterSeg}
yneuron neuron97 in97 0 segParams
R9798 in97 in98 {rInterSeg}
yneuron neuron98 in98 0 segParams
R9899 in98 in99 {rInterSeg}
yneuron neuron99 in99 0 segParams
R99100 in99 in100 {rInterSeg}
yneuron neuron100 in100 0 segParams
R100101 in100 in101 {rInterSeg}
yneuron neuron101 in101 0 segParams
R101102 in101 in102 {rInterSeg}
yneuron neuron102 in102 0 segParams
R102103 in102 in103 {rInterSeg}
yneuron neuron103 in103 0 segParams
R103104 in103 in104 {rInterSeg}
yneuron neuron104 in104 0 segParams
R104105 in104 in105 {rInterSeg}
yneuron neuron105 in105 0 segParams
R105106 in105 in106 {rInterSeg}
yneuron neuron106 in106 0 segParams
R106107 in106 in107 {rInterSeg}
yneuron neuron107 in107 0 segParams
R107108 in107 in108 {rInterSeg}
yneuron neuron108 in108 0 segParams
R108109 in108 in109 {rInterSeg}
yneuron neuron109 in109 0 segParams
R109110 in109 in110 {rInterSeg}
yneuron neuron110 in110 0 segParams
R110111 in110 in111 {rInterSeg}
yneuron neuron111 in111 0 segParams
R111112 in111 in112 {rInterSeg}
yneuron neuron112 in112 0 segParams
R112113 in112 in113 {rInterSeg}
yneuron neuron113 in113 0 segParams
R113114 in113 in114 {rInterSeg}
yneuron neuron114 in114 0 segParams
R114115 in114 in115 {rInterSeg}
yneuron neuron115 in115 0 segParams
R115116 in115 in116 {rInterSeg}
yneuron neuron116 in116 0 segParams
R116117 in116 in117 {rInterSeg}
yneuron neuron117 in117 0 segParams
R117118 in117 in118 {rInterSeg}
yneuron neuron118 in118 0 segParams
R118119 in118 in119 {rInterSeg}
yneuron neuron119 in119 0 segParams
R119120 in119 in120 {rInterSeg}
yneuron neuron120 in120 0 segParams
R120121 in120 in121 {rInterSeg}
yneuron neuron121 in121 0 segParams
R121122 in121 in122 {rInterSeg}
yneuron neuron122 in122 0 segParams
R122123 in122 in123 {rInterSeg}
yneuron neuron123 in123 0 segParams
R123124 in123 in124 {rInterSeg}
yneuron neuron124 in124 0 segParams
R124125 in124 in125 {rInterSeg}
yneuron neuron125 in125 0 segParams
R125126 in125 in126 {rInterSeg}
yneuron neuron126 in126 0 segParams
R126127 in126 in127 {rInterSeg}
yneuron neuron127 in127 0 segParams
R127128 in127 in128 {rInterSeg}
yneuron neuron128 in128 0 segParams
R128129 in128 in129 {rInterSeg}
yneuron neuron129 in129 0 segParams
R129130 in129 in130 {rInterSeg}
yneuron neuron130 in130 0 segParams
R130131 in130 in131 {rInterSeg}
yneuron neuron131 in131 0 segParams
R131132 in131 in132 {rInterSeg}
yneuron neuron132 in132 0 segParams
R132133 in132 in133 {rInterSeg}
yneuron neuron133 in133 0 segParams
R133134 in133 in134 {rInterSeg}
yneuron neuron134 in134 0 segParams
R134135 in134 in135 {rInterSeg}
yneuron neuron135 in135 0 segParams
R135136 in135 in136 {rInterSeg}
yneuron neuron136 in136 0 segParams
R136137 in136 in137 {rInterSeg}
yneuron neuron137 in137 0 segParams
R137138 in137 in138 {rInterSeg}
yneuron neuron138 in138 0 segParams
R138139 in138 in139 {rInterSeg}
yneuron neuron139 in139 0 segParams
R139140 in139 in140 {rInterSeg}
yneuron neuron140 in140 0 segParams
R140141 in140 in141 {rInterSeg}
yneuron neuron141 in141 0 segParams
R141142 in141 in142 {rInterSeg}
yneuron neuron142 in142 0 segParams
R142143 in142 in143 {rInterSeg}
yneuron neuron143 in143 0 segParams
R143144 in143 in144 {rInterSeg}
yneuron neuron144 in144 0 segParams
R144145 in144 in145 {rInterSeg}
yneuron neuron145 in145 0 segParams
R145146 in145 in146 {rInterSeg}
yneuron neuron146 in146 0 segParams
R146147 in146 in147 {rInterSeg}
yneuron neuron147 in147 0 segParams
R147148 in147 in148 {rInterSeg}
yneuron neuron148 in148 0 segParams
R148149 in148 in149 {rInterSeg}
yneuron neuron149 in149 0 segParams
R149150 in149 in150 {rInterSeg}
yneuron neuron150 in150 0 segParams
R150151 in150 in151 {rInterSeg}
yneuron neuron151 in151 0 segParams
R151152 in151 in152 {rInterSeg}
yneuron neuron152 in152 0 segParams
R152153 in152 in153 {rInterSeg}
yneuron neuron153 in153 0 segParams
R153154 in153 in154 {rInterSeg}
yneuron neuron154 in154 0 segParams
R154155 in154 in155 {rInterSeg}
yneuron neuron155 in155 0 segParams
R155156 in155 in156 {rInterSeg}
yneuron neuron156 in156 0 segParams
R156157 in156 in157 {rInterSeg}
yneuron neuron157 in157 0 segParams
R157158 in157 in158 {rInterSeg}
yneuron neuron158 in158 0 segParams
R158159 in158 in159 {rInterSeg}
yneuron neuron159 in159 0 segParams
R159160 in159 in160 {rInterSeg}
yneuron neuron160 in160 0 segParams
R160161 in160 in161 {rInterSeg}
yneuron neuron161 in161 0 segParams
R161162 in161 in162 {rInterSeg}
yneuron neuron162 in162 0 segParams
R162163 in162 in163 {rInterSeg}
yneuron neuron163 in163 0 segParams
R163164 in163 in164 {rInterSeg}
yneuron neuron164 in164 0 segParams
R164165 in164 in165 {rInterSeg}
yneuron neuron165 in165 0 segParams
R165166 in165 in166 {rInterSeg}
yneuron neuron166 in166 0 segParams
R166167 in166 in167 {rInterSeg}
yneuron neuron167 in167 0 segParams
R167168 in167 in168 {rInterSeg}
yneuron neuron168 in168 0 segParams
R168169 in168 in169 {rInterSeg}
yneuron neuron169 in169 0 segParams
R169170 in169 in170 {rInterSeg}
yneuron neuron170 in170 0 segParams
R170171 in170 in171 {rInterSeg}
yneuron neuron171 in171 0 segParams
R171172 in171 in172 {rInterSeg}
yneuron neuron172 in172 0 segParams
R172173 in172 in173 {rInterSeg}
yneuron neuron173 in173 0 segParams
R173174 in173 in174 {rInterSeg}
yneuron neuron174 in174 0 segParams
R174175 in174 in175 {rInterSeg}
yneuron neuron175 in175 0 segParams
R175176 in175 in176 {rInterSeg}
yneuron neuron176 in176 0 segParams
R176177 in176 in177 {rInterSeg}
yneuron neuron177 in177 0 segParams
R177178 in177 in178 {rInterSeg}
yneuron neuron178 in178 0 segParams
R178179 in178 in179 {rInterSeg}
yneuron neuron179 in179 0 segParams
R179180 in179 in180 {rInterSeg}
yneuron neuron180 in180 0 segParams
R180181 in180 in181 {rInterSeg}
yneuron neuron181 in181 0 segParams
R181182 in181 in182 {rInterSeg}
yneuron neuron182 in182 0 segParams
R182183 in182 in183 {rInterSeg}
yneuron neuron183 in183 0 segParams
R183184 in183 in184 {rInterSeg}
yneuron neuron184 in184 0 segParams
R184185 in184 in185 {rInterSeg}
yneuron neuron185 in185 0 segParams
R185186 in185 in186 {rInterSeg}
yneuron neuron186 in186 0 segParams
R186187 in186 in187 {rInterSeg}
yneuron neuron187 in187 0 segParams
R187188 in187 in188 {rInterSeg}
yneuron neuron188 in188 0 segParams
R188189 in188 in189 {rInterSeg}
yneuron neuron189 in189 0 segParams
R189190 in189 in190 {rInterSeg}
yneuron neuron190 in190 0 segParams
R190191 in190 in191 {rInterSeg}
yneuron neuron191 in191 0 segParams
R191192 in191 in192 {rInterSeg}
yneuron neuron192 in192 0 segParams
R192193 in192 in193 {rInterSeg}
yneuron neuron193 in193 0 segParams
R193194 in193 in194 {rInterSeg}
yneuron neuron194 in194 0 segParams
R194195 in194 in195 {rInterSeg}
yneuron neuron195 in195 0 segParams
R195196 in195 in196 {rInterSeg}
yneuron neuron196 in196 0 segParams
R196197 in196 in197 {rInterSeg}
yneuron neuron197 in197 0 segParams
R197198 in197 in198 {rInterSeg}
yneuron neuron198 in198 0 segParams
R198199 in198 in199 {rInterSeg}
yneuron neuron199 in199 0 segParams
R199200 in199 in200 {rInterSeg}
yneuron neuron200 in200 0 segParams
R200201 in200 in201 {rInterSeg}
yneuron neuron201 in201 0 segParams
R201202 in201 in202 {rInterSeg}
yneuron neuron202 in202 0 segParams
R202203 in202 in203 {rInterSeg}
yneuron neuron203 in203 0 segParams
R203204 in203 in204 {rInterSeg}
yneuron neuron204 in204 0 segParams
R204205 in204 in205 {rInterSeg}
yneuron neuron205 in205 0 segParams
R205206 in205 in206 {rInterSeg}
yneuron neuron206 in206 0 segParams
R206207 in206 in207 {rInterSeg}
yneuron neuron207 in207 0 segParams
R207208 in207 in208 {rInterSeg}
yneuron neuron208 in208 0 segParams
R208209 in208 in209 {rInterSeg}
yneuron neuron209 in209 0 segParams
R209210 in209 in210 {rInterSeg}
yneuron neuron210 in210 0 segParams
R210211 in210 in211 {rInterSeg}
yneuron neuron211 in211 0 segParams
R211212 in211 in212 {rInterSeg}
yneuron neuron212 in212 0 segParams
R212213 in212 in213 {rInterSeg}
yneuron neuron213 in213 0 segParams
R213214 in213 in214 {rInterSeg}
yneuron neuron214 in214 0 segParams
R214215 in214 in215 {rInterSeg}
yneuron neuron215 in215 0 segParams
R215216 in215 in216 {rInterSeg}
yneuron neuron216 in216 0 segParams
R216217 in216 in217 {rInterSeg}
yneuron neuron217 in217 0 segParams
R217218 in217 in218 {rInterSeg}
yneuron neuron218 in218 0 segParams
R218219 in218 in219 {rInterSeg}
yneuron neuron219 in219 0 segParams
R219220 in219 in220 {rInterSeg}
yneuron neuron220 in220 0 segParams
R220221 in220 in221 {rInterSeg}
yneuron neuron221 in221 0 segParams
R221222 in221 in222 {rInterSeg}
yneuron neuron222 in222 0 segParams
R222223 in222 in223 {rInterSeg}
yneuron neuron223 in223 0 segParams
R223224 in223 in224 {rInterSeg}
yneuron neuron224 in224 0 segParams
R224225 in224 in225 {rInterSeg}
yneuron neuron225 in225 0 segParams
R225226 in225 in226 {rInterSeg}
yneuron neuron226 in226 0 segParams
R226227 in226 in227 {rInterSeg}
yneuron neuron227 in227 0 segParams
R227228 in227 in228 {rInterSeg}
yneuron neuron228 in228 0 segParams
R228229 in228 in229 {rInterSeg}
yneuron neuron229 in229 0 segParams
R229230 in229 in230 {rInterSeg}
yneuron neuron230 in230 0 segParams
R230231 in230 in231 {rInterSeg}
yneuron neuron231 in231 0 segParams
R231232 in231 in232 {rInterSeg}
yneuron neuron232 in232 0 segParams
R232233 in232 in233 {rInterSeg}
yneuron neuron233 in233 0 segParams
R233234 in233 in234 {rInterSeg}
yneuron neuron234 in234 0 segParams
R234235 in234 in235 {rInterSeg}
yneuron neuron235 in235 0 segParams
R235236 in235 in236 {rInterSeg}
yneuron neuron236 in236 0 segParams
R236237 in236 in237 {rInterSeg}
yneuron neuron237 in237 0 segParams
R237238 in237 in238 {rInterSeg}
yneuron neuron238 in238 0 segParams
R238239 in238 in239 {rInterSeg}
yneuron neuron239 in239 0 segParams
R239240 in239 in240 {rInterSeg}
yneuron neuron240 in240 0 segParams
R240241 in240 in241 {rInterSeg}
yneuron neuron241 in241 0 segParams
R241242 in241 in242 {rInterSeg}
yneuron neuron242 in242 0 segParams
R242243 in242 in243 {rInterSeg}
yneuron neuron243 in243 0 segParams
R243244 in243 in244 {rInterSeg}
yneuron neuron244 in244 0 segParams
R244245 in244 in245 {rInterSeg}
yneuron neuron245 in245 0 segParams
R245246 in245 in246 {rInterSeg}
yneuron neuron246 in246 0 segParams
R246247 in246 in247 {rInterSeg}
yneuron neuron247 in247 0 segParams
R247248 in247 in248 {rInterSeg}
yneuron neuron248 in248 0 segParams
R248249 in248 in249 {rInterSeg}
yneuron neuron249 in249 0 segParams
R249250 in249 in250 {rInterSeg}
yneuron neuron250 in250 0 segParams
R250251 in250 in251 {rInterSeg}
yneuron neuron251 in251 0 segParams
R251252 in251 in252 {rInterSeg}
yneuron neuron252 in252 0 segParams
R252253 in252 in253 {rInterSeg}
yneuron neuron253 in253 0 segParams
R253254 in253 in254 {rInterSeg}
yneuron neuron254 in254 0 segParams
R254255 in254 in255 {rInterSeg}
yneuron neuron255 in255 0 segParams
R255256 in255 in256 {rInterSeg}
yneuron neuron256 in256 0 segParams
R256257 in256 in257 {rInterSeg}
yneuron neuron257 in257 0 segParams
R257258 in257 in258 {rInterSeg}
yneuron neuron258 in258 0 segParams
R258259 in258 in259 {rInterSeg}
yneuron neuron259 in259 0 segParams
R259260 in259 in260 {rInterSeg}
yneuron neuron260 in260 0 segParams
R260261 in260 in261 {rInterSeg}
yneuron neuron261 in261 0 segParams
R261262 in261 in262 {rInterSeg}
yneuron neuron262 in262 0 segParams
R262263 in262 in263 {rInterSeg}
yneuron neuron263 in263 0 segParams
R263264 in263 in264 {rInterSeg}
yneuron neuron264 in264 0 segParams
R264265 in264 in265 {rInterSeg}
yneuron neuron265 in265 0 segParams
R265266 in265 in266 {rInterSeg}
yneuron neuron266 in266 0 segParams
R266267 in266 in267 {rInterSeg}
yneuron neuron267 in267 0 segParams
R267268 in267 in268 {rInterSeg}
yneuron neuron268 in268 0 segParams
R268269 in268 in269 {rInterSeg}
yneuron neuron269 in269 0 segParams
R269270 in269 in270 {rInterSeg}
yneuron neuron270 in270 0 segParams
R270271 in270 in271 {rInterSeg}
yneuron neuron271 in271 0 segParams
R271272 in271 in272 {rInterSeg}
yneuron neuron272 in272 0 segParams
R272273 in272 in273 {rInterSeg}
yneuron neuron273 in273 0 segParams
R273274 in273 in274 {rInterSeg}
yneuron neuron274 in274 0 segParams
R274275 in274 in275 {rInterSeg}
yneuron neuron275 in275 0 segParams
R275276 in275 in276 {rInterSeg}
yneuron neuron276 in276 0 segParams
R276277 in276 in277 {rInterSeg}
yneuron neuron277 in277 0 segParams
R277278 in277 in278 {rInterSeg}
yneuron neuron278 in278 0 segParams
R278279 in278 in279 {rInterSeg}
yneuron neuron279 in279 0 segParams
R279280 in279 in280 {rInterSeg}
yneuron neuron280 in280 0 segParams
R280281 in280 in281 {rInterSeg}
yneuron neuron281 in281 0 segParams
R281282 in281 in282 {rInterSeg}
yneuron neuron282 in282 0 segParams
R282283 in282 in283 {rInterSeg}
yneuron neuron283 in283 0 segParams
R283284 in283 in284 {rInterSeg}
yneuron neuron284 in284 0 segParams
R284285 in284 in285 {rInterSeg}
yneuron neuron285 in285 0 segParams
R285286 in285 in286 {rInterSeg}
yneuron neuron286 in286 0 segParams
R286287 in286 in287 {rInterSeg}
yneuron neuron287 in287 0 segParams
R287288 in287 in288 {rInterSeg}
yneuron neuron288 in288 0 segParams
R288289 in288 in289 {rInterSeg}
yneuron neuron289 in289 0 segParams
R289290 in289 in290 {rInterSeg}
yneuron neuron290 in290 0 segParams
R290291 in290 in291 {rInterSeg}
yneuron neuron291 in291 0 segParams
R291292 in291 in292 {rInterSeg}
yneuron neuron292 in292 0 segParams
R292293 in292 in293 {rInterSeg}
yneuron neuron293 in293 0 segParams
R293294 in293 in294 {rInterSeg}
yneuron neuron294 in294 0 segParams
R294295 in294 in295 {rInterSeg}
yneuron neuron295 in295 0 segParams
R295296 in295 in296 {rInterSeg}
yneuron neuron296 in296 0 segParams
R296297 in296 in297 {rInterSeg}
yneuron neuron297 in297 0 segParams
R297298 in297 in298 {rInterSeg}
yneuron neuron298 in298 0 segParams
R298299 in298 in299 {rInterSeg}
yneuron neuron299 in299 0 segParams
R299300 in299 in300 {rInterSeg}
yneuron neuron300 in300 0 segParams
R300301 in300 in301 {rInterSeg}
yneuron neuron301 in301 0 segParams
R301302 in301 in302 {rInterSeg}
yneuron neuron302 in302 0 segParams
R302303 in302 in303 {rInterSeg}
yneuron neuron303 in303 0 segParams
R303304 in303 in304 {rInterSeg}
yneuron neuron304 in304 0 segParams
R304305 in304 in305 {rInterSeg}
yneuron neuron305 in305 0 segParams
R305306 in305 in306 {rInterSeg}
yneuron neuron306 in306 0 segParams
R306307 in306 in307 {rInterSeg}
yneuron neuron307 in307 0 segParams
R307308 in307 in308 {rInterSeg}
yneuron neuron308 in308 0 segParams
R308309 in308 in309 {rInterSeg}
yneuron neuron309 in309 0 segParams
R309310 in309 in310 {rInterSeg}
yneuron neuron310 in310 0 segParams
R310311 in310 in311 {rInterSeg}
yneuron neuron311 in311 0 segParams
R311312 in311 in312 {rInterSeg}
yneuron neuron312 in312 0 segParams
R312313 in312 in313 {rInterSeg}
yneuron neuron313 in313 0 segParams
R313314 in313 in314 {rInterSeg}
yneuron neuron314 in314 0 segParams
R314315 in314 in315 {rInterSeg}
yneuron neuron315 in315 0 segParams
R315316 in315 in316 {rInterSeg}
yneuron neuron316 in316 0 segParams
R316317 in316 in317 {rInterSeg}
yneuron neuron317 in317 0 segParams
R317318 in317 in318 {rInterSeg}
yneuron neuron318 in318 0 segParams
R318319 in318 in319 {rInterSeg}
yneuron neuron319 in319 0 segParams
R319320 in319 in320 {rInterSeg}
yneuron neuron320 in320 0 segParams
R320321 in320 in321 {rInterSeg}
yneuron neuron321 in321 0 segParams
R321322 in321 in322 {rInterSeg}
yneuron neuron322 in322 0 segParams
R322323 in322 in323 {rInterSeg}
yneuron neuron323 in323 0 segParams
R323324 in323 in324 {rInterSeg}
yneuron neuron324 in324 0 segParams
R324325 in324 in325 {rInterSeg}
yneuron neuron325 in325 0 segParams
R325326 in325 in326 {rInterSeg}
yneuron neuron326 in326 0 segParams
R326327 in326 in327 {rInterSeg}
yneuron neuron327 in327 0 segParams
R327328 in327 in328 {rInterSeg}
yneuron neuron328 in328 0 segParams
R328329 in328 in329 {rInterSeg}
yneuron neuron329 in329 0 segParams
R329330 in329 in330 {rInterSeg}
yneuron neuron330 in330 0 segParams
R330331 in330 in331 {rInterSeg}
yneuron neuron331 in331 0 segParams
R331332 in331 in332 {rInterSeg}
yneuron neuron332 in332 0 segParams
R332333 in332 in333 {rInterSeg}
yneuron neuron333 in333 0 segParams
R333334 in333 in334 {rInterSeg}
yneuron neuron334 in334 0 segParams
R334335 in334 in335 {rInterSeg}
yneuron neuron335 in335 0 segParams
R335336 in335 in336 {rInterSeg}
yneuron neuron336 in336 0 segParams
R336337 in336 in337 {rInterSeg}
yneuron neuron337 in337 0 segParams
R337338 in337 in338 {rInterSeg}
yneuron neuron338 in338 0 segParams
R338339 in338 in339 {rInterSeg}
yneuron neuron339 in339 0 segParams
R339340 in339 in340 {rInterSeg}
yneuron neuron340 in340 0 segParams
R340341 in340 in341 {rInterSeg}
yneuron neuron341 in341 0 segParams
R341342 in341 in342 {rInterSeg}
yneuron neuron342 in342 0 segParams
R342343 in342 in343 {rInterSeg}
yneuron neuron343 in343 0 segParams
R343344 in343 in344 {rInterSeg}
yneuron neuron344 in344 0 segParams
R344345 in344 in345 {rInterSeg}
yneuron neuron345 in345 0 segParams
R345346 in345 in346 {rInterSeg}
yneuron neuron346 in346 0 segParams
R346347 in346 in347 {rInterSeg}
yneuron neuron347 in347 0 segParams
R347348 in347 in348 {rInterSeg}
yneuron neuron348 in348 0 segParams
R348349 in348 in349 {rInterSeg}
yneuron neuron349 in349 0 segParams
R349350 in349 in350 {rInterSeg}
yneuron neuron350 in350 0 segParams
R350351 in350 in351 {rInterSeg}
yneuron neuron351 in351 0 segParams
R351352 in351 in352 {rInterSeg}
yneuron neuron352 in352 0 segParams
R352353 in352 in353 {rInterSeg}
yneuron neuron353 in353 0 segParams
R353354 in353 in354 {rInterSeg}
yneuron neuron354 in354 0 segParams
R354355 in354 in355 {rInterSeg}
yneuron neuron355 in355 0 segParams
R355356 in355 in356 {rInterSeg}
yneuron neuron356 in356 0 segParams
R356357 in356 in357 {rInterSeg}
yneuron neuron357 in357 0 segParams
R357358 in357 in358 {rInterSeg}
yneuron neuron358 in358 0 segParams
R358359 in358 in359 {rInterSeg}
yneuron neuron359 in359 0 segParams
R359360 in359 in360 {rInterSeg}
yneuron neuron360 in360 0 segParams
R360361 in360 in361 {rInterSeg}
yneuron neuron361 in361 0 segParams
R361362 in361 in362 {rInterSeg}
yneuron neuron362 in362 0 segParams
R362363 in362 in363 {rInterSeg}
yneuron neuron363 in363 0 segParams
R363364 in363 in364 {rInterSeg}
yneuron neuron364 in364 0 segParams
R364365 in364 in365 {rInterSeg}
yneuron neuron365 in365 0 segParams
R365366 in365 in366 {rInterSeg}
yneuron neuron366 in366 0 segParams
R366367 in366 in367 {rInterSeg}
yneuron neuron367 in367 0 segParams
R367368 in367 in368 {rInterSeg}
yneuron neuron368 in368 0 segParams
R368369 in368 in369 {rInterSeg}
yneuron neuron369 in369 0 segParams
R369370 in369 in370 {rInterSeg}
yneuron neuron370 in370 0 segParams
R370371 in370 in371 {rInterSeg}
yneuron neuron371 in371 0 segParams
R371372 in371 in372 {rInterSeg}
yneuron neuron372 in372 0 segParams
R372373 in372 in373 {rInterSeg}
yneuron neuron373 in373 0 segParams
R373374 in373 in374 {rInterSeg}
yneuron neuron374 in374 0 segParams
R374375 in374 in375 {rInterSeg}
yneuron neuron375 in375 0 segParams
R375376 in375 in376 {rInterSeg}
yneuron neuron376 in376 0 segParams
R376377 in376 in377 {rInterSeg}
yneuron neuron377 in377 0 segParams
R377378 in377 in378 {rInterSeg}
yneuron neuron378 in378 0 segParams
R378379 in378 in379 {rInterSeg}
yneuron neuron379 in379 0 segParams
R379380 in379 in380 {rInterSeg}
yneuron neuron380 in380 0 segParams
R380381 in380 in381 {rInterSeg}
yneuron neuron381 in381 0 segParams
R381382 in381 in382 {rInterSeg}
yneuron neuron382 in382 0 segParams
R382383 in382 in383 {rInterSeg}
yneuron neuron383 in383 0 segParams
R383384 in383 in384 {rInterSeg}
yneuron neuron384 in384 0 segParams
R384385 in384 in385 {rInterSeg}
yneuron neuron385 in385 0 segParams
R385386 in385 in386 {rInterSeg}
yneuron neuron386 in386 0 segParams
R386387 in386 in387 {rInterSeg}
yneuron neuron387 in387 0 segParams
R387388 in387 in388 {rInterSeg}
yneuron neuron388 in388 0 segParams
R388389 in388 in389 {rInterSeg}
yneuron neuron389 in389 0 segParams
R389390 in389 in390 {rInterSeg}
yneuron neuron390 in390 0 segParams
R390391 in390 in391 {rInterSeg}
yneuron neuron391 in391 0 segParams
R391392 in391 in392 {rInterSeg}
yneuron neuron392 in392 0 segParams
R392393 in392 in393 {rInterSeg}
yneuron neuron393 in393 0 segParams
R393394 in393 in394 {rInterSeg}
yneuron neuron394 in394 0 segParams
R394395 in394 in395 {rInterSeg}
yneuron neuron395 in395 0 segParams
R395396 in395 in396 {rInterSeg}
yneuron neuron396 in396 0 segParams
R396397 in396 in397 {rInterSeg}
yneuron neuron397 in397 0 segParams
R397398 in397 in398 {rInterSeg}
yneuron neuron398 in398 0 segParams
R398399 in398 in399 {rInterSeg}
yneuron neuron399 in399 0 segParams
R399400 in399 in400 {rInterSeg}
yneuron neuron400 in400 0 segParams
R400401 in400 in401 {rInterSeg}
yneuron neuron401 in401 0 segParams
R401402 in401 in402 {rInterSeg}
yneuron neuron402 in402 0 segParams
R402403 in402 in403 {rInterSeg}
yneuron neuron403 in403 0 segParams
R403404 in403 in404 {rInterSeg}
yneuron neuron404 in404 0 segParams
R404405 in404 in405 {rInterSeg}
yneuron neuron405 in405 0 segParams
R405406 in405 in406 {rInterSeg}
yneuron neuron406 in406 0 segParams
R406407 in406 in407 {rInterSeg}
yneuron neuron407 in407 0 segParams
R407408 in407 in408 {rInterSeg}
yneuron neuron408 in408 0 segParams
R408409 in408 in409 {rInterSeg}
yneuron neuron409 in409 0 segParams
R409410 in409 in410 {rInterSeg}
yneuron neuron410 in410 0 segParams
R410411 in410 in411 {rInterSeg}
yneuron neuron411 in411 0 segParams
R411412 in411 in412 {rInterSeg}
yneuron neuron412 in412 0 segParams
R412413 in412 in413 {rInterSeg}
yneuron neuron413 in413 0 segParams
R413414 in413 in414 {rInterSeg}
yneuron neuron414 in414 0 segParams
R414415 in414 in415 {rInterSeg}
yneuron neuron415 in415 0 segParams
R415416 in415 in416 {rInterSeg}
yneuron neuron416 in416 0 segParams
R416417 in416 in417 {rInterSeg}
yneuron neuron417 in417 0 segParams
R417418 in417 in418 {rInterSeg}
yneuron neuron418 in418 0 segParams
R418419 in418 in419 {rInterSeg}
yneuron neuron419 in419 0 segParams
R419420 in419 in420 {rInterSeg}
yneuron neuron420 in420 0 segParams
R420421 in420 in421 {rInterSeg}
yneuron neuron421 in421 0 segParams
R421422 in421 in422 {rInterSeg}
yneuron neuron422 in422 0 segParams
R422423 in422 in423 {rInterSeg}
yneuron neuron423 in423 0 segParams