// Generated for: spectre
// Generated on: Apr 18 08:16:27 2017
// Design library name: Pete_Lib3
// Design cell name: dup_name
// Design view name: schematic
simulator lang=spectre
global 0
//include "/usr/local/cadence/ic-5.1.41usr5/tools/dfII/samples/artist/ahdlLib/quantity.spectre"

// Library name: Pete_Lib3
// Cell name: dup_name
// View name: schematic
V0 (net1 0) vsource type=sine ampl=1 freq=1K
r0 (net4 0) resistor r=1K
R0 (net1 net4) resistor r=1K
simulatorOptions options reltol=1e-3 vabstol=1e-6 iabstol=1e-12 temp=27 \
    tnom=27 scalem=1.0 scale=1.0 gmin=1e-12 rforce=1 maxnotes=5 maxwarns=5 \
    digits=5 cols=80 pivrel=1e-3 sensfile="../psf/sens.output" \
    checklimitdest=psf 
tran tran stop=1e-3 write="spectre.ic" writefinal="spectre.fc" \
    annotate=status maxiters=5 
finalTimeOP info what=oppoint where=rawfile
modelParameter info what=models where=rawfile
element info what=inst where=rawfile
outputParameter info what=output where=rawfile
designParamVals info what=parameters where=rawfile
primitives info what=primitives where=rawfile
subckts info what=subckts  where=rawfile
saveOptions options save=allpub

