* Small circuit demonstrating the fix for issue 575.
* Issue 575 was about Bsrc-based table models being 
* ineffient when the table is large and the table 
* entries are based on expressions.
*
* In older versions of Xyce this circuit takes many minutes to run.
* After the fix it takes seconds.  (about 25 seconds on my old 
* laptop as of this writing)

.param eric=0.9
.param vdd2={eric*2.0}
.param vdd=1.8

.param vss=0.1

.step eric list 0.5 0.9

.print tran v(in_S)

.tran 12000.100000ns 1550611.300000ns noop

RS in_S 0 1.0
BS in_S 0 V= {table(time,
+ 0.100000ns, VSS,
+ 960.800000ns, VSS,
+ 960.900000ns, VDD2,
+ 1441.200000ns, VDD2,
+ 1441.300000ns, VSS,
+ 1921.600000ns, VSS,
+ 1921.700000ns, VDD,
+ 2882.400000ns, VDD,
+ 2882.500000ns, VSS,
+ 3843.200000ns, VSS,
+ 3843.300000ns, VDD,
+ 4563.800000ns, VDD,
+ 4563.900000ns, VSS,
+ 4924.100000ns, VSS,
+ 4924.200000ns, VDD,
+ 6125.100000ns, VDD,
+ 6125.200000ns, VSS,
+ 6245.200000ns, VSS,
+ 6245.300000ns, VDD,
+ 7326.100000ns, VDD,
+ 7326.200000ns, VSS,
+ 7686.400000ns, VSS,
+ 7686.500000ns, VDD,
+ 7806.500000ns, VDD,
+ 7806.600000ns, VSS,
+ 7926.600000ns, VSS,
+ 7926.700000ns, VDD,
+ 9728.100000ns, VDD,
+ 9728.200000ns, VSS,
+ 10088.400000ns, VSS,
+ 10088.500000ns, VDD,
+ 10328.600000ns, VDD,
+ 10328.700000ns, VSS,
+ 10448.700000ns, VSS,
+ 10448.800000ns, VDD,
+ 10688.900000ns, VDD,
+ 10689.000000ns, VSS,
+ 10929.100000ns, VSS,
+ 10929.200000ns, VDD,
+ 11529.600000ns, VDD,
+ 11529.700000ns, VSS,
+ 11649.700000ns, VSS,
+ 11649.800000ns, VDD,
+ 12490.400000ns, VDD,
+ 12490.500000ns, VSS,
+ 12970.800000ns, VSS,
+ 12970.900000ns, VDD,
+ 13090.900000ns, VDD,
+ 13091.000000ns, VSS,
+ 13451.200000ns, VSS,
+ 13451.300000ns, VDD,
+ 13811.500000ns, VDD,
+ 13811.600000ns, VSS,
+ 14291.900000ns, VSS,
+ 14292.000000ns, VDD,
+ 14772.300000ns, VDD,
+ 14772.400000ns, VSS,
+ 15132.600000ns, VSS,
+ 15132.700000ns, VDD,
+ 15372.800000ns, VDD,
+ 15372.900000ns, VSS,
+ 15613.000000ns, VSS,
+ 15613.100000ns, VDD,
+ 16093.400000ns, VDD,
+ 16093.500000ns, VSS,
+ 16333.600000ns, VSS,
+ 16333.700000ns, VDD,
+ 18855.700000ns, VDD,
+ 18855.800000ns, VSS,
+ 19095.900000ns, VSS,
+ 19096.000000ns, VDD,
+ 19216.000000ns, VDD,
+ 19216.100000ns, VSS,
+ 19336.100000ns, VSS,
+ 19336.200000ns, VDD,
+ 20176.800000ns, VDD,
+ 20176.900000ns, VSS,
+ 20296.900000ns, VSS,
+ 20297.000000ns, VDD,
+ 20417.000000ns, VDD,
+ 20417.100000ns, VSS,
+ 21618.000000ns, VSS,
+ 21618.100000ns, VDD,
+ 21978.300000ns, VDD,
+ 21978.400000ns, VSS,
+ 22338.600000ns, VSS,
+ 22338.700000ns, VDD,
+ 23299.400000ns, VDD,
+ 23299.500000ns, VSS,
+ 23779.800000ns, VSS,
+ 23779.900000ns, VDD,
+ 24740.600000ns, VDD,
+ 24740.700000ns, VSS,
+ 25100.900000ns, VSS,
+ 25101.000000ns, VDD,
+ 25701.400000ns, VDD,
+ 25701.500000ns, VSS,
+ 26422.000000ns, VSS,
+ 26422.100000ns, VDD,
+ 26902.400000ns, VDD,
+ 26902.500000ns, VSS,
+ 27262.700000ns, VSS,
+ 27262.800000ns, VDD,
+ 27983.300000ns, VDD,
+ 27983.400000ns, VSS,
+ 28343.600000ns, VSS,
+ 28343.700000ns, VDD,
+ 28583.800000ns, VDD,
+ 28583.900000ns, VSS,
+ 29664.700000ns, VSS,
+ 29664.800000ns, VDD,
+ 30025.000000ns, VDD,
+ 30025.100000ns, VSS,
+ 31466.200000ns, VSS,
+ 31466.300000ns, VDD,
+ 32066.700000ns, VDD,
+ 32066.800000ns, VSS,
+ 32547.100000ns, VSS,
+ 32547.200000ns, VDD,
+ 33387.800000ns, VDD,
+ 33387.900000ns, VSS,
+ 33748.100000ns, VSS,
+ 33748.200000ns, VDD,
+ 35669.700000ns, VDD,
+ 35669.800000ns, VSS,
+ 36390.300000ns, VSS,
+ 36390.400000ns, VDD,
+ 37471.200000ns, VDD,
+ 37471.300000ns, VSS,
+ 38071.700000ns, VSS,
+ 38071.800000ns, VDD,
+ 38552.100000ns, VDD,
+ 38552.200000ns, VSS,
+ 38672.200000ns, VSS,
+ 38672.300000ns, VDD,
+ 38792.300000ns, VDD,
+ 38792.400000ns, VSS,
+ 38912.400000ns, VSS,
+ 38912.500000ns, VDD,
+ 39032.500000ns, VDD,
+ 39032.600000ns, VSS,
+ 41434.500000ns, VSS,
+ 41434.600000ns, VDD,
+ 42035.000000ns, VDD,
+ 42035.100000ns, VSS,
+ 42515.400000ns, VSS,
+ 42515.500000ns, VDD,
+ 44557.100000ns, VDD,
+ 44557.200000ns, VSS,
+ 45397.800000ns, VSS,
+ 45397.900000ns, VDD,
+ 45878.200000ns, VDD,
+ 45878.300000ns, VSS,
+ 46478.700000ns, VSS,
+ 46478.800000ns, VDD,
+ 47559.600000ns, VDD,
+ 47559.700000ns, VSS,
+ 47799.800000ns, VSS,
+ 47799.900000ns, VDD,
+ 50081.700000ns, VDD,
+ 50081.800000ns, VSS,
+ 50321.900000ns, VSS,
+ 50322.000000ns, VDD,
+ 50442.000000ns, VDD,
+ 50442.100000ns, VSS,
+ 50802.300000ns, VSS,
+ 50802.400000ns, VDD,
+ 50922.400000ns, VDD,
+ 50922.500000ns, VSS,
+ 51042.500000ns, VSS,
+ 51042.600000ns, VDD,
+ 52483.700000ns, VDD,
+ 52483.800000ns, VSS,
+ 52844.000000ns, VSS,
+ 52844.100000ns, VDD,
+ 53324.400000ns, VDD,
+ 53324.500000ns, VSS,
+ 53924.900000ns, VSS,
+ 53925.000000ns, VDD,
+ 55246.000000ns, VDD,
+ 55246.100000ns, VSS,
+ 55726.400000ns, VSS,
+ 55726.500000ns, VDD,
+ 56567.100000ns, VDD,
+ 56567.200000ns, VSS,
+ 56927.400000ns, VSS,
+ 56927.500000ns, VDD,
+ 57047.500000ns, VDD,
+ 57047.600000ns, VSS,
+ 57407.800000ns, VSS,
+ 57407.900000ns, VDD,
+ 58008.300000ns, VDD,
+ 58008.400000ns, VSS,
+ 58488.700000ns, VSS,
+ 58488.800000ns, VDD,
+ 58608.800000ns, VDD,
+ 58608.900000ns, VSS,
+ 58728.900000ns, VSS,
+ 58729.000000ns, VDD,
+ 60290.200000ns, VDD,
+ 60290.300000ns, VSS,
+ 60530.400000ns, VSS,
+ 60530.500000ns, VDD,
+ 60650.500000ns, VDD,
+ 60650.600000ns, VSS,
+ 61130.900000ns, VSS,
+ 61131.000000ns, VDD,
+ 61731.400000ns, VDD,
+ 61731.500000ns, VSS,
+ 62211.800000ns, VSS,
+ 62211.900000ns, VDD,
+ 63653.000000ns, VDD,
+ 63653.100000ns, VSS,
+ 63773.100000ns, VSS,
+ 63773.200000ns, VDD,
+ 63893.200000ns, VDD,
+ 63893.300000ns, VSS,
+ 65934.900000ns, VSS,
+ 65935.000000ns, VDD,
+ 67135.900000ns, VDD,
+ 67136.000000ns, VSS,
+ 67616.300000ns, VSS,
+ 67616.400000ns, VDD,
+ 68096.700000ns, VDD,
+ 68096.800000ns, VSS,
+ 68457.000000ns, VSS,
+ 68457.100000ns, VDD,
+ 68817.300000ns, VDD,
+ 68817.400000ns, VSS,
+ 70859.000000ns, VSS,
+ 70859.100000ns, VDD,
+ 70979.100000ns, VDD,
+ 70979.200000ns, VSS,
+ 71459.500000ns, VSS,
+ 71459.600000ns, VDD,
+ 72060.000000ns, VDD,
+ 72060.100000ns, VSS,
+ 72540.400000ns, VSS,
+ 72540.500000ns, VDD,
+ 73621.300000ns, VDD,
+ 73621.400000ns, VSS,
+ 73741.400000ns, VSS,
+ 73741.500000ns, VDD,
+ 74341.900000ns, VDD,
+ 74342.000000ns, VSS,
+ 76263.500000ns, VSS,
+ 76263.600000ns, VDD,
+ 76503.700000ns, VDD,
+ 76503.800000ns, VSS,
+ 76864.000000ns, VSS,
+ 76864.100000ns, VDD,
+ 76984.100000ns, VDD,
+ 76984.200000ns, VSS,
+ 77104.200000ns, VSS,
+ 77104.300000ns, VDD,
+ 77344.400000ns, VDD,
+ 77344.500000ns, VSS,
+ 77464.500000ns, VSS,
+ 77464.600000ns, VDD,
+ 77584.600000ns, VDD,
+ 77584.700000ns, VSS,
+ 79266.000000ns, VSS,
+ 79266.100000ns, VDD,
+ 81187.600000ns, VDD,
+ 81187.700000ns, VSS,
+ 81307.700000ns, VSS,
+ 81307.800000ns, VDD,
+ 81427.800000ns, VDD,
+ 81427.900000ns, VSS,
+ 83469.500000ns, VSS,
+ 83469.600000ns, VDD,
+ 83949.900000ns, VDD,
+ 83950.000000ns, VSS,
+ 85030.800000ns, VSS,
+ 85030.900000ns, VDD,
+ 86111.700000ns, VDD,
+ 86111.800000ns, VSS,
+ 86592.100000ns, VSS,
+ 86592.200000ns, VDD,
+ 86712.200000ns, VDD,
+ 86712.300000ns, VSS,
+ 86832.300000ns, VSS,
+ 86832.400000ns, VDD,
+ 87072.500000ns, VDD,
+ 87072.600000ns, VSS,
+ 88033.300000ns, VSS,
+ 88033.400000ns, VDD,
+ 88513.700000ns, VDD,
+ 88513.800000ns, VSS,
+ 88994.100000ns, VSS,
+ 88994.200000ns, VDD,
+ 90555.400000ns, VDD,
+ 90555.500000ns, VSS,
+ 90915.700000ns, VSS,
+ 90915.800000ns, VDD,
+ 91155.900000ns, VDD,
+ 91156.000000ns, VSS,
+ 91276.000000ns, VSS,
+ 91276.100000ns, VDD,
+ 92356.900000ns, VDD,
+ 92357.000000ns, VSS,
+ 92717.200000ns, VSS,
+ 92717.300000ns, VDD,
+ 93197.600000ns, VDD,
+ 93197.700000ns, VSS,
+ 95359.400000ns, VSS,
+ 95359.500000ns, VDD,
+ 95719.700000ns, VDD,
+ 95719.800000ns, VSS,
+ 96440.300000ns, VSS,
+ 96440.400000ns, VDD,
+ 98962.400000ns, VDD,
+ 98962.500000ns, VSS,
+ 99202.600000ns, VSS,
+ 99202.700000ns, VDD,
+ 99683.000000ns, VDD,
+ 99683.100000ns, VSS,
+ 100403.600000ns, VSS,
+ 100403.700000ns, VDD,
+ 100643.800000ns, VDD,
+ 100643.900000ns, VSS,
+ 101244.300000ns, VSS,
+ 101244.400000ns, VDD,
+ 102205.100000ns, VDD,
+ 102205.200000ns, VSS,
+ 102325.200000ns, VSS,
+ 102325.300000ns, VDD,
+ 102445.300000ns, VDD,
+ 102445.400000ns, VSS,
+ 102925.700000ns, VSS,
+ 102925.800000ns, VDD,
+ 103286.000000ns, VDD,
+ 103286.100000ns, VSS,
+ 104006.600000ns, VSS,
+ 104006.700000ns, VDD,
+ 104487.000000ns, VDD,
+ 104487.100000ns, VSS,
+ 104607.100000ns, VSS,
+ 104607.200000ns, VDD,
+ 105087.500000ns, VDD,
+ 105087.600000ns, VSS,
+ 105207.600000ns, VSS,
+ 105207.700000ns, VDD,
+ 105327.700000ns, VDD,
+ 105327.800000ns, VSS,
+ 106408.600000ns, VSS,
+ 106408.700000ns, VDD,
+ 106528.700000ns, VDD,
+ 106528.800000ns, VSS,
+ 107009.100000ns, VSS,
+ 107009.200000ns, VDD,
+ 107489.500000ns, VDD,
+ 107489.600000ns, VSS,
+ 108330.200000ns, VSS,
+ 108330.300000ns, VDD,
+ 108450.300000ns, VDD,
+ 108450.400000ns, VSS,
+ 108810.600000ns, VSS,
+ 108810.700000ns, VDD,
+ 109050.800000ns, VDD,
+ 109050.900000ns, VSS,
+ 109291.000000ns, VSS,
+ 109291.100000ns, VDD,
+ 111572.900000ns, VDD,
+ 111573.000000ns, VSS,
+ 112413.600000ns, VSS,
+ 112413.700000ns, VDD,
+ 112773.900000ns, VDD,
+ 112774.000000ns, VSS,
+ 113014.100000ns, VSS,
+ 113014.200000ns, VDD,
+ 113614.600000ns, VDD,
+ 113614.700000ns, VSS,
+ 114935.700000ns, VSS,
+ 114935.800000ns, VDD,
+ 115175.900000ns, VDD,
+ 115176.000000ns, VSS,
+ 116136.700000ns, VSS,
+ 116136.800000ns, VDD,
+ 116497.000000ns, VDD,
+ 116497.100000ns, VSS,
+ 116617.100000ns, VSS,
+ 116617.200000ns, VDD,
+ 116737.200000ns, VDD,
+ 116737.300000ns, VSS,
+ 116977.400000ns, VSS,
+ 116977.500000ns, VDD,
+ 118178.400000ns, VDD,
+ 118178.500000ns, VSS,
+ 118658.800000ns, VSS,
+ 118658.900000ns, VDD,
+ 118778.900000ns, VDD,
+ 118779.000000ns, VSS,
+ 118899.000000ns, VSS,
+ 118899.100000ns, VDD,
+ 119379.400000ns, VDD,
+ 119379.500000ns, VSS,
+ 120100.000000ns, VSS,
+ 120100.100000ns, VDD,
+ 120340.200000ns, VDD,
+ 120340.300000ns, VSS,
+ 120820.600000ns, VSS,
+ 120820.700000ns, VDD,
+ 121180.900000ns, VDD,
+ 121181.000000ns, VSS,
+ 121781.400000ns, VSS,
+ 121781.500000ns, VDD,
+ 121901.500000ns, VDD,
+ 121901.600000ns, VSS,
+ 122141.700000ns, VSS,
+ 122141.800000ns, VDD,
+ 122862.300000ns, VDD,
+ 122862.400000ns, VSS,
+ 123102.500000ns, VSS,
+ 123102.600000ns, VDD,
+ 123222.600000ns, VDD,
+ 123222.700000ns, VSS,
+ 124183.400000ns, VSS,
+ 124183.500000ns, VDD,
+ 124543.700000ns, VDD,
+ 124543.800000ns, VSS,
+ 124663.800000ns, VSS,
+ 124663.900000ns, VDD,
+ 125504.500000ns, VDD,
+ 125504.600000ns, VSS,
+ 125984.900000ns, VSS,
+ 125985.000000ns, VDD,
+ 127906.500000ns, VDD,
+ 127906.600000ns, VSS,
+ 128386.900000ns, VSS,
+ 128387.000000ns, VDD,
+ 128867.300000ns, VDD,
+ 128867.400000ns, VSS,
+ 128987.400000ns, VSS,
+ 128987.500000ns, VDD,
+ 129587.900000ns, VDD,
+ 129588.000000ns, VSS,
+ 130188.400000ns, VSS,
+ 130188.500000ns, VDD,
+ 131149.200000ns, VDD,
+ 131149.300000ns, VSS,
+ 131869.800000ns, VSS,
+ 131869.900000ns, VDD,
+ 132230.100000ns, VDD,
+ 132230.200000ns, VSS,
+ 133551.200000ns, VSS,
+ 133551.300000ns, VDD,
+ 134271.800000ns, VDD,
+ 134271.900000ns, VSS,
+ 135352.700000ns, VSS,
+ 135352.800000ns, VDD,
+ 135713.000000ns, VDD,
+ 135713.100000ns, VSS,
+ 138355.200000ns, VSS,
+ 138355.300000ns, VDD,
+ 138715.500000ns, VDD,
+ 138715.600000ns, VSS,
+ 139195.900000ns, VSS,
+ 139196.000000ns, VDD,
+ 140156.700000ns, VDD,
+ 140156.800000ns, VSS,
+ 140517.000000ns, VSS,
+ 140517.100000ns, VDD,
+ 140757.200000ns, VDD,
+ 140757.300000ns, VSS,
+ 141597.900000ns, VSS,
+ 141598.000000ns, VDD,
+ 141838.100000ns, VDD,
+ 141838.200000ns, VSS,
+ 142318.500000ns, VSS,
+ 142318.600000ns, VDD,
+ 143639.600000ns, VDD,
+ 143639.700000ns, VSS,
+ 144600.400000ns, VSS,
+ 144600.500000ns, VDD,
+ 145681.300000ns, VDD,
+ 145681.400000ns, VSS,
+ 146161.700000ns, VSS,
+ 146161.800000ns, VDD,
+ 146642.100000ns, VDD,
+ 146642.200000ns, VSS,
+ 148323.500000ns, VSS,
+ 148323.600000ns, VDD,
+ 148443.600000ns, VDD,
+ 148443.700000ns, VSS,
+ 150004.900000ns, VSS,
+ 150005.000000ns, VDD,
+ 150965.700000ns, VDD,
+ 150965.800000ns, VSS,
+ 152767.200000ns, VSS,
+ 152767.300000ns, VDD,
+ 153367.700000ns, VDD,
+ 153367.800000ns, VSS,
+ 153728.000000ns, VSS,
+ 153728.100000ns, VDD,
+ 154088.300000ns, VDD,
+ 154088.400000ns, VSS,
+ 154688.800000ns, VSS,
+ 154688.900000ns, VDD,
+ 155049.100000ns, VDD,
+ 155049.200000ns, VSS,
+ 155529.500000ns, VSS,
+ 155529.600000ns, VDD,
+ 155649.600000ns, VDD,
+ 155649.700000ns, VSS,
+ 157331.000000ns, VSS,
+ 157331.100000ns, VDD,
+ 159853.100000ns, VDD,
+ 159853.200000ns, VSS,
+ 160453.600000ns, VSS,
+ 160453.700000ns, VDD,
+ 160573.700000ns, VDD,
+ 160573.800000ns, VSS,
+ 160693.800000ns, VSS,
+ 160693.900000ns, VDD,
+ 161174.200000ns, VDD,
+ 161174.300000ns, VSS,
+ 161654.600000ns, VSS,
+ 161654.700000ns, VDD,
+ 162135.000000ns, VDD,
+ 162135.100000ns, VSS,
+ 162735.500000ns, VSS,
+ 162735.600000ns, VDD,
+ 162855.600000ns, VDD,
+ 162855.700000ns, VSS,
+ 163215.900000ns, VSS,
+ 163216.000000ns, VDD,
+ 163696.300000ns, VDD,
+ 163696.400000ns, VSS,
+ 164657.100000ns, VSS,
+ 164657.200000ns, VDD,
+ 165137.500000ns, VDD,
+ 165137.600000ns, VSS,
+ 165377.700000ns, VSS,
+ 165377.800000ns, VDD,
+ 165978.200000ns, VDD,
+ 165978.300000ns, VSS,
+ 166939.000000ns, VSS,
+ 166939.100000ns, VDD,
+ 167779.700000ns, VDD,
+ 167779.800000ns, VSS,
+ 169581.200000ns, VSS,
+ 169581.300000ns, VDD,
+ 169821.400000ns, VDD,
+ 169821.500000ns, VSS,
+ 170782.200000ns, VSS,
+ 170782.300000ns, VDD,
+ 171382.700000ns, VDD,
+ 171382.800000ns, VSS,
+ 171502.800000ns, VSS,
+ 171502.900000ns, VDD,
+ 172463.600000ns, VDD,
+ 172463.700000ns, VSS,
+ 172583.700000ns, VSS,
+ 172583.800000ns, VDD,
+ 172703.800000ns, VDD,
+ 172703.900000ns, VSS,
+ 173184.200000ns, VSS,
+ 173184.300000ns, VDD,
+ 174265.100000ns, VDD,
+ 174265.200000ns, VSS,
+ 174865.600000ns, VSS,
+ 174865.700000ns, VDD,
+ 176426.900000ns, VDD,
+ 176427.000000ns, VSS,
+ 177027.400000ns, VSS,
+ 177027.500000ns, VDD,
+ 177748.000000ns, VDD,
+ 177748.100000ns, VSS,
+ 178108.300000ns, VSS,
+ 178108.400000ns, VDD,
+ 178588.700000ns, VDD,
+ 178588.800000ns, VSS,
+ 178708.800000ns, VSS,
+ 178708.900000ns, VDD,
+ 179549.500000ns, VDD,
+ 179549.600000ns, VSS,
+ 180029.900000ns, VSS,
+ 180030.000000ns, VDD,
+ 181351.000000ns, VDD,
+ 181351.100000ns, VSS,
+ 182311.800000ns, VSS,
+ 182311.900000ns, VDD,
+ 182552.000000ns, VDD,
+ 182552.100000ns, VSS,
+ 183753.000000ns, VSS,
+ 183753.100000ns, VDD,
+ 183993.200000ns, VDD,
+ 183993.300000ns, VSS,
+ 184233.400000ns, VSS,
+ 184233.500000ns, VDD,
+ 184593.700000ns, VDD,
+ 184593.800000ns, VSS,
+ 185314.300000ns, VSS,
+ 185314.400000ns, VDD,
+ 185674.600000ns, VDD,
+ 185674.700000ns, VSS,
+ 186034.900000ns, VSS,
+ 186035.000000ns, VDD,
+ 186155.000000ns, VDD,
+ 186155.100000ns, VSS,
+ 186635.400000ns, VSS,
+ 186635.500000ns, VDD,
+ 186995.700000ns, VDD,
+ 186995.800000ns, VSS,
+ 187476.100000ns, VSS,
+ 187476.200000ns, VDD,
+ 189397.700000ns, VDD,
+ 189397.800000ns, VSS,
+ 190478.600000ns, VSS,
+ 190478.700000ns, VDD,
+ 190838.900000ns, VDD,
+ 190839.000000ns, VSS,
+ 190959.000000ns, VSS,
+ 190959.100000ns, VDD,
+ 191559.500000ns, VDD,
+ 191559.600000ns, VSS,
+ 191679.600000ns, VSS,
+ 191679.700000ns, VDD,
+ 192520.300000ns, VDD,
+ 192520.400000ns, VSS,
+ 192880.600000ns, VSS,
+ 192880.700000ns, VDD,
+ 193361.000000ns, VDD,
+ 193361.100000ns, VSS,
+ 193841.400000ns, VSS,
+ 193841.500000ns, VDD,
+ 196003.200000ns, VDD,
+ 196003.300000ns, VSS,
+ 196123.300000ns, VSS,
+ 196123.400000ns, VDD,
+ 197444.400000ns, VDD,
+ 197444.500000ns, VSS,
+ 198405.200000ns, VSS,
+ 198405.300000ns, VDD,
+ 198645.400000ns, VDD,
+ 198645.500000ns, VSS,
+ 199245.900000ns, VSS,
+ 199246.000000ns, VDD,
+ 199966.500000ns, VDD,
+ 199966.600000ns, VSS,
+ 200927.300000ns, VSS,
+ 200927.400000ns, VDD,
+ 201768.000000ns, VDD,
+ 201768.100000ns, VSS,
+ 202248.400000ns, VSS,
+ 202248.500000ns, VDD,
+ 203689.600000ns, VDD,
+ 203689.700000ns, VSS,
+ 204530.300000ns, VSS,
+ 204530.400000ns, VDD,
+ 204770.500000ns, VDD,
+ 204770.600000ns, VSS,
+ 207532.800000ns, VSS,
+ 207532.900000ns, VDD,
+ 207893.100000ns, VDD,
+ 207893.200000ns, VSS,
+ 208133.300000ns, VSS,
+ 208133.400000ns, VDD,
+ 208253.400000ns, VDD,
+ 208253.500000ns, VSS,
+ 208613.700000ns, VSS,
+ 208613.800000ns, VDD,
+ 209094.100000ns, VDD,
+ 209094.200000ns, VSS,
+ 209574.500000ns, VSS,
+ 209574.600000ns, VDD,
+ 210655.400000ns, VDD,
+ 210655.500000ns, VSS,
+ 211135.800000ns, VSS,
+ 211135.900000ns, VDD,
+ 211376.000000ns, VDD,
+ 211376.100000ns, VSS,
+ 211856.400000ns, VSS,
+ 211856.500000ns, VDD,
+ 215579.500000ns, VDD,
+ 215579.600000ns, VSS,
+ 215819.700000ns, VSS,
+ 215819.800000ns, VDD,
+ 216660.400000ns, VDD,
+ 216660.500000ns, VSS,
+ 216780.500000ns, VSS,
+ 216780.600000ns, VDD,
+ 217741.300000ns, VDD,
+ 217741.400000ns, VSS,
+ 217981.500000ns, VSS,
+ 217981.600000ns, VDD,
+ 219182.500000ns, VDD,
+ 219182.600000ns, VSS,
+ 219783.000000ns, VSS,
+ 219783.100000ns, VDD,
+ 220263.400000ns, VDD,
+ 220263.500000ns, VSS,
+ 220743.800000ns, VSS,
+ 220743.900000ns, VDD,
+ 221224.200000ns, VDD,
+ 221224.300000ns, VSS,
+ 221704.600000ns, VSS,
+ 221704.700000ns, VDD,
+ 222665.400000ns, VDD,
+ 222665.500000ns, VSS,
+ 223025.700000ns, VSS,
+ 223025.800000ns, VDD,
+ 223746.300000ns, VDD,
+ 223746.400000ns, VSS,
+ 224226.700000ns, VSS,
+ 224226.800000ns, VDD,
+ 224466.900000ns, VDD,
+ 224467.000000ns, VSS,
+ 224947.300000ns, VSS,
+ 224947.400000ns, VDD,
+ 225307.600000ns, VDD,
+ 225307.700000ns, VSS,
+ 225788.000000ns, VSS,
+ 225788.100000ns, VDD,
+ 226148.300000ns, VDD,
+ 226148.400000ns, VSS,
+ 226628.700000ns, VSS,
+ 226628.800000ns, VDD,
+ 227109.100000ns, VDD,
+ 227109.200000ns, VSS,
+ 228430.200000ns, VSS,
+ 228430.300000ns, VDD,
+ 229030.700000ns, VDD,
+ 229030.800000ns, VSS,
+ 229391.000000ns, VSS,
+ 229391.100000ns, VDD,
+ 229511.100000ns, VDD,
+ 229511.200000ns, VSS,
+ 230832.200000ns, VSS,
+ 230832.300000ns, VDD,
+ 231552.800000ns, VDD,
+ 231552.900000ns, VSS,
+ 232033.200000ns, VSS,
+ 232033.300000ns, VDD,
+ 232994.000000ns, VDD,
+ 232994.100000ns, VSS,
+ 233234.200000ns, VSS,
+ 233234.300000ns, VDD,
+ 233954.800000ns, VDD,
+ 233954.900000ns, VSS,
+ 234074.900000ns, VSS,
+ 234075.000000ns, VDD,
+ 234795.500000ns, VDD,
+ 234795.600000ns, VSS,
+ 235035.700000ns, VSS,
+ 235035.800000ns, VDD,
+ 235275.900000ns, VDD,
+ 235276.000000ns, VSS,
+ 235756.300000ns, VSS,
+ 235756.400000ns, VDD,
+ 235876.400000ns, VDD,
+ 235876.500000ns, VSS,
+ 237557.800000ns, VSS,
+ 237557.900000ns, VDD,
+ 239599.500000ns, VDD,
+ 239599.600000ns, VSS,
+ 239719.600000ns, VSS,
+ 239719.700000ns, VDD,
+ 239839.700000ns, VDD,
+ 239839.800000ns, VSS,
+ 241280.900000ns, VSS,
+ 241281.000000ns, VDD,
+ 242121.600000ns, VDD,
+ 242121.700000ns, VSS,
+ 242481.900000ns, VSS,
+ 242482.000000ns, VDD,
+ 243682.900000ns, VDD,
+ 243683.000000ns, VSS,
+ 244643.700000ns, VSS,
+ 244643.800000ns, VDD,
+ 246325.100000ns, VDD,
+ 246325.200000ns, VSS,
+ 247526.100000ns, VSS,
+ 247526.200000ns, VDD,
+ 249687.900000ns, VDD,
+ 249688.000000ns, VSS,
+ 250048.200000ns, VSS,
+ 250048.300000ns, VDD,
+ 250408.500000ns, VDD,
+ 250408.600000ns, VSS,
+ 250888.900000ns, VSS,
+ 250889.000000ns, VDD,
+ 251969.800000ns, VDD,
+ 251969.900000ns, VSS,
+ 253290.900000ns, VSS,
+ 253291.000000ns, VDD,
+ 253651.200000ns, VDD,
+ 253651.300000ns, VSS,
+ 253771.300000ns, VSS,
+ 253771.400000ns, VDD,
+ 253891.400000ns, VDD,
+ 253891.500000ns, VSS,
+ 254732.100000ns, VSS,
+ 254732.200000ns, VDD,
+ 255452.700000ns, VDD,
+ 255452.800000ns, VSS,
+ 255813.000000ns, VSS,
+ 255813.100000ns, VDD,
+ 256173.300000ns, VDD,
+ 256173.400000ns, VSS,
+ 256293.400000ns, VSS,
+ 256293.500000ns, VDD,
+ 256413.500000ns, VDD,
+ 256413.600000ns, VSS,
+ 257494.400000ns, VSS,
+ 257494.500000ns, VDD,
+ 258575.300000ns, VDD,
+ 258575.400000ns, VSS,
+ 259776.300000ns, VSS,
+ 259776.400000ns, VDD,
+ 260136.600000ns, VDD,
+ 260136.700000ns, VSS,
+ 260857.200000ns, VSS,
+ 260857.300000ns, VDD,
+ 261337.600000ns, VDD,
+ 261337.700000ns, VSS,
+ 262538.600000ns, VSS,
+ 262538.700000ns, VDD,
+ 263019.000000ns, VDD,
+ 263019.100000ns, VSS,
+ 263259.200000ns, VSS,
+ 263259.300000ns, VDD,
+ 264220.000000ns, VDD,
+ 264220.100000ns, VSS,
+ 265060.700000ns, VSS,
+ 265060.800000ns, VDD,
+ 265421.000000ns, VDD,
+ 265421.100000ns, VSS,
+ 266501.900000ns, VSS,
+ 266502.000000ns, VDD,
+ 267222.500000ns, VDD,
+ 267222.600000ns, VSS,
+ 267342.600000ns, VSS,
+ 267342.700000ns, VDD,
+ 267823.000000ns, VDD,
+ 267823.100000ns, VSS,
+ 267943.100000ns, VSS,
+ 267943.200000ns, VDD,
+ 268543.600000ns, VDD,
+ 268543.700000ns, VSS,
+ 270345.100000ns, VSS,
+ 270345.200000ns, VDD,
+ 270945.600000ns, VDD,
+ 270945.700000ns, VSS,
+ 272146.600000ns, VSS,
+ 272146.700000ns, VDD,
+ 272266.700000ns, VDD,
+ 272266.800000ns, VSS,
+ 272386.800000ns, VSS,
+ 272386.900000ns, VDD,
+ 273347.600000ns, VDD,
+ 273347.700000ns, VSS,
+ 273828.000000ns, VSS,
+ 273828.100000ns, VDD,
+ 274068.200000ns, VDD,
+ 274068.300000ns, VSS,
+ 274188.300000ns, VSS,
+ 274188.400000ns, VDD,
+ 275509.400000ns, VDD,
+ 275509.500000ns, VSS,
+ 275629.500000ns, VSS,
+ 275629.600000ns, VDD,
+ 276350.100000ns, VDD,
+ 276350.200000ns, VSS,
+ 277310.900000ns, VSS,
+ 277311.000000ns, VDD,
+ 277431.000000ns, VDD,
+ 277431.100000ns, VSS,
+ 277551.100000ns, VSS,
+ 277551.200000ns, VDD,
+ 277791.300000ns, VDD,
+ 277791.400000ns, VSS,
+ 278391.800000ns, VSS,
+ 278391.900000ns, VDD,
+ 279712.900000ns, VDD,
+ 279713.000000ns, VSS,
+ 280313.400000ns, VSS,
+ 280313.500000ns, VDD,
+ 280673.700000ns, VDD,
+ 280673.800000ns, VSS,
+ 281274.200000ns, VSS,
+ 281274.300000ns, VDD,
+ 282114.900000ns, VDD,
+ 282115.000000ns, VSS,
+ 282235.000000ns, VSS,
+ 282235.100000ns, VDD,
+ 283916.400000ns, VDD,
+ 283916.500000ns, VSS,
+ 284757.100000ns, VSS,
+ 284757.200000ns, VDD,
+ 284997.300000ns, VDD,
+ 284997.400000ns, VSS,
+ 285357.600000ns, VSS,
+ 285357.700000ns, VDD,
+ 286798.800000ns, VDD,
+ 286798.900000ns, VSS,
+ 287399.300000ns, VSS,
+ 287399.400000ns, VDD,
+ 288119.900000ns, VDD,
+ 288120.000000ns, VSS,
+ 288240.000000ns, VSS,
+ 288240.100000ns, VDD,
+ 288720.400000ns, VDD,
+ 288720.500000ns, VSS,
+ 289080.700000ns, VSS,
+ 289080.800000ns, VDD,
+ 290161.600000ns, VDD,
+ 290161.700000ns, VSS,
+ 290762.100000ns, VSS,
+ 290762.200000ns, VDD,
+ 291002.300000ns, VDD,
+ 291002.400000ns, VSS,
+ 291362.600000ns, VSS,
+ 291362.700000ns, VDD,
+ 291722.900000ns, VDD,
+ 291723.000000ns, VSS,
+ 292203.300000ns, VSS,
+ 292203.400000ns, VDD,
+ 292683.700000ns, VDD,
+ 292683.800000ns, VSS,
+ 293644.500000ns, VSS,
+ 293644.600000ns, VDD,
+ 294605.300000ns, VDD,
+ 294605.400000ns, VSS,
+ 294965.600000ns, VSS,
+ 294965.700000ns, VDD,
+ 296526.900000ns, VDD,
+ 296527.000000ns, VSS,
+ 297727.900000ns, VSS,
+ 297728.000000ns, VDD,
+ 298208.300000ns, VDD,
+ 298208.400000ns, VSS,
+ 298688.700000ns, VSS,
+ 298688.800000ns, VDD,
+ 299049.000000ns, VDD,
+ 299049.100000ns, VSS,
+ 301571.100000ns, VSS,
+ 301571.200000ns, VDD,
+ 302171.600000ns, VDD,
+ 302171.700000ns, VSS,
+ 303372.600000ns, VSS,
+ 303372.700000ns, VDD,
+ 304693.700000ns, VDD,
+ 304693.800000ns, VSS,
+ 305174.100000ns, VSS,
+ 305174.200000ns, VDD,
+ 305894.700000ns, VDD,
+ 305894.800000ns, VSS,
+ 306134.900000ns, VSS,
+ 306135.000000ns, VDD,
+ 306255.000000ns, VDD,
+ 306255.100000ns, VSS,
+ 306615.300000ns, VSS,
+ 306615.400000ns, VDD,
+ 306735.400000ns, VDD,
+ 306735.500000ns, VSS,
+ 309017.300000ns, VSS,
+ 309017.400000ns, VDD,
+ 310218.300000ns, VDD,
+ 310218.400000ns, VSS,
+ 311179.100000ns, VSS,
+ 311179.200000ns, VDD,
+ 311299.200000ns, VDD,
+ 311299.300000ns, VSS,
+ 311419.300000ns, VSS,
+ 311419.400000ns, VDD,
+ 313461.000000ns, VDD,
+ 313461.100000ns, VSS,
+ 314782.100000ns, VSS,
+ 314782.200000ns, VDD,
+ 315142.400000ns, VDD,
+ 315142.500000ns, VSS,
+ 315382.600000ns, VSS,
+ 315382.700000ns, VDD,
+ 315502.700000ns, VDD,
+ 315502.800000ns, VSS,
+ 315622.800000ns, VSS,
+ 315622.900000ns, VDD,
+ 316103.200000ns, VDD,
+ 316103.300000ns, VSS,
+ 316583.600000ns, VSS,
+ 316583.700000ns, VDD,
+ 317544.400000ns, VDD,
+ 317544.500000ns, VSS,
+ 317784.600000ns, VSS,
+ 317784.700000ns, VDD,
+ 318265.000000ns, VDD,
+ 318265.100000ns, VSS,
+ 319225.800000ns, VSS,
+ 319225.900000ns, VDD,
+ 319345.900000ns, VDD,
+ 319346.000000ns, VSS,
+ 319466.000000ns, VSS,
+ 319466.100000ns, VDD,
+ 319706.200000ns, VDD,
+ 319706.300000ns, VSS,
+ 320186.600000ns, VSS,
+ 320186.700000ns, VDD,
+ 320426.800000ns, VDD,
+ 320426.900000ns, VSS,
+ 320667.000000ns, VSS,
+ 320667.100000ns, VDD,
+ 321147.400000ns, VDD,
+ 321147.500000ns, VSS,
+ 321387.600000ns, VSS,
+ 321387.700000ns, VDD,
+ 321507.700000ns, VDD,
+ 321507.800000ns, VSS,
+ 321627.800000ns, VSS,
+ 321627.900000ns, VDD,
+ 322828.800000ns, VDD,
+ 322828.900000ns, VSS,
+ 323429.300000ns, VSS,
+ 323429.400000ns, VDD,
+ 323669.500000ns, VDD,
+ 323669.600000ns, VSS,
+ 323789.600000ns, VSS,
+ 323789.700000ns, VDD,
+ 324630.300000ns, VDD,
+ 324630.400000ns, VSS,
+ 327032.300000ns, VSS,
+ 327032.400000ns, VDD,
+ 327392.600000ns, VDD,
+ 327392.700000ns, VSS,
+ 327873.000000ns, VSS,
+ 327873.100000ns, VDD,
+ 329074.000000ns, VDD,
+ 329074.100000ns, VSS,
+ 331115.700000ns, VSS,
+ 331115.800000ns, VDD,
+ 331235.800000ns, VDD,
+ 331235.900000ns, VSS,
+ 331836.300000ns, VSS,
+ 331836.400000ns, VDD,
+ 334358.400000ns, VDD,
+ 334358.500000ns, VSS,
+ 334958.900000ns, VSS,
+ 334959.000000ns, VDD,
+ 335199.100000ns, VDD,
+ 335199.200000ns, VSS,
+ 335679.500000ns, VSS,
+ 335679.600000ns, VDD,
+ 336760.400000ns, VDD,
+ 336760.500000ns, VSS,
+ 337000.600000ns, VSS,
+ 337000.700000ns, VDD,
+ 337841.300000ns, VDD,
+ 337841.400000ns, VSS,
+ 338321.700000ns, VSS,
+ 338321.800000ns, VDD,
+ 339762.900000ns, VDD,
+ 339763.000000ns, VSS,
+ 340483.500000ns, VSS,
+ 340483.600000ns, VDD,
+ 340843.800000ns, VDD,
+ 340843.900000ns, VSS,
+ 341324.200000ns, VSS,
+ 341324.300000ns, VDD,
+ 343245.800000ns, VDD,
+ 343245.900000ns, VSS,
+ 344206.600000ns, VSS,
+ 344206.700000ns, VDD,
+ 344326.700000ns, VDD,
+ 344326.800000ns, VSS,
+ 344687.000000ns, VSS,
+ 344687.100000ns, VDD,
+ 345407.600000ns, VDD,
+ 345407.700000ns, VSS,
+ 346248.300000ns, VSS,
+ 346248.400000ns, VDD,
+ 346728.700000ns, VDD,
+ 346728.800000ns, VSS,
+ 348410.100000ns, VSS,
+ 348410.200000ns, VDD,
+ 348890.500000ns, VDD,
+ 348890.600000ns, VSS,
+ 349491.000000ns, VSS,
+ 349491.100000ns, VDD,
+ 349731.200000ns, VDD,
+ 349731.300000ns, VSS,
+ 350091.500000ns, VSS,
+ 350091.600000ns, VDD,
+ 350571.900000ns, VDD,
+ 350572.000000ns, VSS,
+ 350812.100000ns, VSS,
+ 350812.200000ns, VDD,
+ 351172.400000ns, VDD,
+ 351172.500000ns, VSS,
+ 351772.900000ns, VSS,
+ 351773.000000ns, VDD,
+ 351893.000000ns, VDD,
+ 351893.100000ns, VSS,
+ 352373.400000ns, VSS,
+ 352373.500000ns, VDD,
+ 352853.800000ns, VDD,
+ 352853.900000ns, VSS,
+ 356576.900000ns, VSS,
+ 356577.000000ns, VDD,
+ 358018.100000ns, VDD,
+ 358018.200000ns, VSS,
+ 358258.300000ns, VSS,
+ 358258.400000ns, VDD,
+ 358378.400000ns, VDD,
+ 358378.500000ns, VSS,
+ 358858.800000ns, VSS,
+ 358858.900000ns, VDD,
+ 359099.000000ns, VDD,
+ 359099.100000ns, VSS,
+ 360300.000000ns, VSS,
+ 360300.100000ns, VDD,
+ 361020.600000ns, VDD,
+ 361020.700000ns, VSS,
+ 361981.400000ns, VSS,
+ 361981.500000ns, VDD,
+ 363182.400000ns, VDD,
+ 363182.500000ns, VSS,
+ 363302.500000ns, VSS,
+ 363302.600000ns, VDD,
+ 363542.700000ns, VDD,
+ 363542.800000ns, VSS,
+ 364263.300000ns, VSS,
+ 364263.400000ns, VDD,
+ 364743.700000ns, VDD,
+ 364743.800000ns, VSS,
+ 366184.900000ns, VSS,
+ 366185.000000ns, VDD,
+ 366665.300000ns, VDD,
+ 366665.400000ns, VSS,
+ 367145.700000ns, VSS,
+ 367145.800000ns, VDD,
+ 368707.000000ns, VDD,
+ 368707.100000ns, VSS,
+ 369067.300000ns, VSS,
+ 369067.400000ns, VDD,
+ 370988.900000ns, VDD,
+ 370989.000000ns, VSS,
+ 372069.800000ns, VSS,
+ 372069.900000ns, VDD,
+ 374832.100000ns, VDD,
+ 374832.200000ns, VSS,
+ 376033.100000ns, VSS,
+ 376033.200000ns, VDD,
+ 376633.600000ns, VDD,
+ 376633.700000ns, VSS,
+ 376993.900000ns, VSS,
+ 376994.000000ns, VDD,
+ 377714.500000ns, VDD,
+ 377714.600000ns, VSS,
+ 378315.000000ns, VSS,
+ 378315.100000ns, VDD,
+ 378795.400000ns, VDD,
+ 378795.500000ns, VSS,
+ 379275.800000ns, VSS,
+ 379275.900000ns, VDD,
+ 379996.400000ns, VDD,
+ 379996.500000ns, VSS,
+ 382038.100000ns, VSS,
+ 382038.200000ns, VDD,
+ 383359.200000ns, VDD,
+ 383359.300000ns, VSS,
+ 384920.500000ns, VSS,
+ 384920.600000ns, VDD,
+ 385040.600000ns, VDD,
+ 385040.700000ns, VSS,
+ 386722.000000ns, VSS,
+ 386722.100000ns, VDD,
+ 388043.100000ns, VDD,
+ 388043.200000ns, VSS,
+ 388883.800000ns, VSS,
+ 388883.900000ns, VDD,
+ 389124.000000ns, VDD,
+ 389124.100000ns, VSS,
+ 389244.100000ns, VSS,
+ 389244.200000ns, VDD,
+ 389364.200000ns, VDD,
+ 389364.300000ns, VSS,
+ 389724.500000ns, VSS,
+ 389724.600000ns, VDD,
+ 390325.000000ns, VDD,
+ 390325.100000ns, VSS,
+ 390565.200000ns, VSS,
+ 390565.300000ns, VDD,
+ 392006.400000ns, VDD,
+ 392006.500000ns, VSS,
+ 392246.600000ns, VSS,
+ 392246.700000ns, VDD,
+ 392366.700000ns, VDD,
+ 392366.800000ns, VSS,
+ 392727.000000ns, VSS,
+ 392727.100000ns, VDD,
+ 392967.200000ns, VDD,
+ 392967.300000ns, VSS,
+ 393327.500000ns, VSS,
+ 393327.600000ns, VDD,
+ 393807.900000ns, VDD,
+ 393808.000000ns, VSS,
+ 394408.400000ns, VSS,
+ 394408.500000ns, VDD,
+ 395369.200000ns, VDD,
+ 395369.300000ns, VSS,
+ 396570.200000ns, VSS,
+ 396570.300000ns, VDD,
+ 396690.300000ns, VDD,
+ 396690.400000ns, VSS,
+ 396810.400000ns, VSS,
+ 396810.500000ns, VDD,
+ 397170.700000ns, VDD,
+ 397170.800000ns, VSS,
+ 397771.200000ns, VSS,
+ 397771.300000ns, VDD,
+ 398371.700000ns, VDD,
+ 398371.800000ns, VSS,
+ 400053.100000ns, VSS,
+ 400053.200000ns, VDD,
+ 401494.300000ns, VDD,
+ 401494.400000ns, VSS,
+ 402935.500000ns, VSS,
+ 402935.600000ns, VDD,
+ 403175.700000ns, VDD,
+ 403175.800000ns, VSS,
+ 404016.400000ns, VSS,
+ 404016.500000ns, VDD,
+ 405577.700000ns, VDD,
+ 405577.800000ns, VSS,
+ 406418.400000ns, VSS,
+ 406418.500000ns, VDD,
+ 406898.800000ns, VDD,
+ 406898.900000ns, VSS,
+ 407619.400000ns, VSS,
+ 407619.500000ns, VDD,
+ 407859.600000ns, VDD,
+ 407859.700000ns, VSS,
+ 409541.000000ns, VSS,
+ 409541.100000ns, VDD,
+ 410021.400000ns, VDD,
+ 410021.500000ns, VSS,
+ 410261.600000ns, VSS,
+ 410261.700000ns, VDD,
+ 410621.900000ns, VDD,
+ 410622.000000ns, VSS,