$ curly braces for simple function calls
* This tests XDM can correctly identify and put 
* curly braces around single functions in parameter 
* statements. This should also include removing 
* any delimiters embedded in the function call.
* See issue #154 in XDM gitlab.

.param
+ p1 = 1.5
+ val1=max(1,3)
+ val2=agauss(0,0,'2*p1')
+ val3=sqrt(9)

va 1 0 dc=0
r1 1 2 val1
r2 2 0 val2+val3

.dc va 0 10 1
.print dc v(1) v(2)

