$ ternary operator
* Netlist tests XDM correctly translates  
* expressions with ternary operators
* (see issue #102 on XDM gitlab).

.param flag1 = 1
.param flag2 = -1
.param val1 = 'flag1>0?4:8'
.param val2 = 4
.param val3 = 8
.param val4(x,y) = 'x>0?y>0?4:8:8'

va 1 0 dc=0
r1 1 2 val1
r2 2 3 'flag2>0?val2:val3'
r3 3 0 'val4(flag1,flag2)'

.dc va 0 10 1
.print dc v(1) v(2)
