*** simple solar cell eq. circuit 

*** circuit layout 
* solar cell grain model 
* voltage source 
Vdd n1 0 1 


*** model definition
.MODEL dm1 D (LEVEL=1 IS=8.9393e-09 N=1.682) 
.MODEL dm2 D (LEVEL=1 IS=1.0700e-06 N=1.660) 
.MODEL dm3 D (LEVEL=1 IS=2.3600e-08 N=1.820) 
.MODEL dm4 D (LEVEL=1 IS=5.0600e-15 N=1.940) 
.MODEL dm5 D (LEVEL=1 IS=2.8600e-06 N=1.650) 
.MODEL dm6 D (LEVEL=1 IS=1.6000e-04 N=1.270) 
.MODEL dm7 D (LEVEL=1 IS=1.5100e-08 N=1.770) 
.MODEL dm8 D (LEVEL=1 IS=2.7300e-16 N=1.950) 
.MODEL dm9 D (LEVEL=1 IS=1.0300e-16 N=1.650) 
.MODEL dm10 D (LEVEL=1 IS=2.0100e-08 N=1.270) 
.MODEL dm11 D (LEVEL=1 IS=2.5900e-06 N=1.770) 
.MODEL dm12 D (LEVEL=1 IS=1.5500e-11 N=1.950) 
.MODEL dm13 D (LEVEL=1 IS=0.0000e+00 N=2.000) 
.MODEL dm14 D (LEVEL=1 IS=0.0000e+00 N=2.000) 

*** diode definition
D2 n3 0 dm1 AREA=4.190e-07
D3 n4 0 dm1 AREA=3.064e-07
D4 n5 0 dm1 AREA=5.062e-07
D5 n6 0 dm1 AREA=2.541e-07
D6 n7 0 dm1 AREA=4.298e-07
D7 n8 0 dm1 AREA=8.625e-07
D8 n9 0 dm1 AREA=9.339e-07
D9 n10 0 dm1 AREA=5.878e-07
D10 n11 0 dm1 AREA=1.559e-06
D11 n12 0 dm1 AREA=1.225e-06
D12 n13 0 dm1 AREA=1.127e-06
D13 n14 0 dm1 AREA=6.810e-07
D14 n15 0 dm1 AREA=9.285e-07
D15 n16 0 dm1 AREA=1.314e-06
D16 n17 0 dm1 AREA=6.018e-07
D17 n18 0 dm1 AREA=1.235e-06
D18 n19 0 dm1 AREA=2.556e-07
D19 n20 0 dm1 AREA=4.861e-07
D20 n21 0 dm1 AREA=1.103e-06
D21 n22 0 dm1 AREA=5.660e-07
D22 n23 0 dm1 AREA=4.605e-07
D23 n24 0 dm1 AREA=6.236e-07
D24 n25 0 dm1 AREA=6.088e-07
D25 n26 0 dm1 AREA=1.298e-06
D26 n27 0 dm1 AREA=7.569e-07
D27 n28 0 dm1 AREA=3.530e-07
D28 n29 0 dm1 AREA=4.491e-07
D29 n30 0 dm1 AREA=6.631e-07
D30 n31 0 dm1 AREA=1.128e-06
D31 n32 0 dm1 AREA=8.167e-07
D32 n33 0 dm1 AREA=7.455e-07
D33 n34 0 dm1 AREA=7.323e-07
D34 n35 0 dm1 AREA=9.119e-07
D35 n36 0 dm1 AREA=4.246e-07
D36 n37 0 dm1 AREA=7.176e-07
D37 n38 0 dm1 AREA=1.426e-06
D38 n39 0 dm1 AREA=1.314e-06
D39 n40 0 dm1 AREA=1.214e-06
D40 n41 0 dm1 AREA=1.936e-06
D41 n42 0 dm1 AREA=6.377e-07
D42 n43 0 dm1 AREA=9.413e-07
D43 n44 0 dm1 AREA=7.136e-07
D44 n45 0 dm1 AREA=1.331e-06
D45 n46 0 dm1 AREA=7.655e-07
D46 n47 0 dm1 AREA=7.247e-07
D47 n48 0 dm1 AREA=2.307e-07
D48 n49 0 dm1 AREA=1.277e-06
D49 n50 0 dm1 AREA=2.119e-06
D50 n51 0 dm1 AREA=7.286e-07
D51 n52 0 dm1 AREA=4.096e-07
D52 n53 0 dm1 AREA=4.957e-07
D53 n54 0 dm1 AREA=6.202e-07
D54 n55 0 dm1 AREA=8.884e-07
D55 n56 0 dm1 AREA=1.846e-06
D56 n57 0 dm1 AREA=5.088e-07
D57 n58 0 dm1 AREA=1.370e-06
D58 n59 0 dm1 AREA=9.885e-07
D59 n60 0 dm1 AREA=7.307e-07
D60 n61 0 dm1 AREA=1.574e-06
D61 n62 0 dm1 AREA=4.701e-07
D62 n63 0 dm1 AREA=3.521e-07
D63 n64 0 dm1 AREA=1.134e-06
D64 n65 0 dm1 AREA=6.607e-07
D65 n66 0 dm1 AREA=6.719e-07
D66 n67 0 dm1 AREA=2.565e-06
D67 n68 0 dm1 AREA=3.700e-07
D68 n69 0 dm1 AREA=1.314e-06
D69 n70 0 dm1 AREA=1.633e-06
D70 n71 0 dm1 AREA=1.193e-06
D71 n72 0 dm1 AREA=8.711e-07
D72 n73 0 dm1 AREA=6.286e-07
D73 n74 0 dm1 AREA=3.611e-07
D74 n75 0 dm1 AREA=1.399e-06
D75 n76 0 dm1 AREA=1.387e-06
D76 n77 0 dm1 AREA=1.630e-06
D77 n78 0 dm1 AREA=6.776e-07
D78 n79 0 dm1 AREA=1.236e-06
D79 n80 0 dm1 AREA=6.540e-07
D80 n81 0 dm1 AREA=9.424e-07
D81 n82 0 dm1 AREA=1.068e-06
D82 n83 0 dm1 AREA=8.713e-07
D83 n84 0 dm1 AREA=1.235e-06
D84 n85 0 dm1 AREA=1.127e-06
D85 n86 0 dm1 AREA=9.646e-07
D86 n87 0 dm1 AREA=5.929e-07
D87 n88 0 dm1 AREA=8.341e-07
D88 n89 0 dm1 AREA=4.546e-07
D89 n90 0 dm1 AREA=1.055e-06
D90 n91 0 dm1 AREA=8.806e-07
D91 n92 0 dm1 AREA=7.549e-07
D92 n93 0 dm1 AREA=6.124e-07
D93 n94 0 dm1 AREA=1.046e-06
D94 n95 0 dm1 AREA=7.094e-07
D95 n96 0 dm1 AREA=7.010e-07
D96 n97 0 dm1 AREA=9.498e-07
D97 n98 0 dm1 AREA=6.611e-07
D98 n99 0 dm1 AREA=1.736e-06
D99 n100 0 dm1 AREA=1.062e-06
D100 n101 0 dm1 AREA=5.478e-07
D101 n102 0 dm1 AREA=1.304e-06
D102 n103 0 dm1 AREA=1.498e-06
D103 n104 0 dm1 AREA=9.375e-07
D104 n105 0 dm1 AREA=1.111e-06
D105 n106 0 dm1 AREA=6.419e-07
D106 n107 0 dm1 AREA=7.029e-07
D107 n108 0 dm1 AREA=1.010e-06
D108 n109 0 dm1 AREA=2.309e-06
D109 n110 0 dm1 AREA=1.723e-06
D110 n111 0 dm1 AREA=1.128e-06
D111 n112 0 dm1 AREA=8.483e-07
D112 n113 0 dm1 AREA=1.161e-06
D113 n114 0 dm1 AREA=9.833e-07
D114 n115 0 dm1 AREA=7.142e-07
D115 n116 0 dm1 AREA=1.951e-06
D116 n117 0 dm1 AREA=9.904e-07
D117 n118 0 dm1 AREA=1.572e-06
D118 n119 0 dm1 AREA=9.237e-07
D119 n120 0 dm1 AREA=9.627e-07
D120 n121 0 dm1 AREA=7.365e-07
D121 n122 0 dm1 AREA=1.908e-06
D122 n123 0 dm1 AREA=1.114e-06
D123 n124 0 dm1 AREA=5.429e-07
D124 n125 0 dm1 AREA=8.227e-07
D125 n126 0 dm1 AREA=5.163e-07
D126 n127 0 dm1 AREA=9.082e-07
D127 n128 0 dm1 AREA=1.799e-06
D128 n129 0 dm1 AREA=7.372e-07
D129 n130 0 dm1 AREA=1.142e-06
D130 n131 0 dm1 AREA=2.547e-07
D131 n132 0 dm1 AREA=2.459e-06
D132 n133 0 dm1 AREA=1.634e-06
D133 n134 0 dm1 AREA=6.828e-07
D134 n135 0 dm1 AREA=1.258e-06
D135 n136 0 dm1 AREA=9.633e-07
D136 n137 0 dm1 AREA=1.437e-06
D137 n138 0 dm1 AREA=9.349e-07
D138 n139 0 dm1 AREA=1.189e-06
D139 n140 0 dm1 AREA=6.119e-07
D140 n141 0 dm1 AREA=6.820e-07
D141 n142 0 dm1 AREA=3.288e-07
D142 n143 0 dm1 AREA=7.578e-07
D143 n144 0 dm1 AREA=1.446e-06
D144 n145 0 dm1 AREA=9.524e-07
D145 n146 0 dm1 AREA=7.706e-07
D146 n147 0 dm1 AREA=7.518e-07
D147 n148 0 dm1 AREA=1.021e-06
D148 n149 0 dm1 AREA=2.872e-07
D149 n150 0 dm1 AREA=1.280e-06
D150 n151 0 dm1 AREA=7.318e-07
D151 n152 0 dm1 AREA=6.110e-07
D152 n153 0 dm1 AREA=3.461e-07
D153 n154 0 dm1 AREA=1.031e-06
D154 n155 0 dm1 AREA=1.276e-06
D155 n156 0 dm1 AREA=1.061e-06
D156 n157 0 dm1 AREA=1.520e-06
D157 n158 0 dm1 AREA=2.784e-07
D158 n159 0 dm1 AREA=8.815e-07
D159 n160 0 dm1 AREA=1.736e-06
D160 n161 0 dm1 AREA=7.552e-07
D161 n162 0 dm1 AREA=1.031e-06
D162 n163 0 dm1 AREA=9.168e-07
D163 n164 0 dm1 AREA=1.022e-06
D164 n165 0 dm1 AREA=1.863e-06
D165 n166 0 dm1 AREA=1.403e-07
D166 n167 0 dm1 AREA=7.623e-07
D167 n168 0 dm1 AREA=1.116e-06
D168 n169 0 dm1 AREA=6.604e-07
D169 n170 0 dm1 AREA=7.253e-07
D170 n171 0 dm1 AREA=8.543e-07
D171 n172 0 dm1 AREA=8.213e-07
D172 n173 0 dm1 AREA=1.388e-06
D173 n174 0 dm1 AREA=7.550e-07
D174 n1 0 dm1 AREA=3.116e-07
D175 n176 0 dm1 AREA=1.088e-06
D176 n177 0 dm1 AREA=6.280e-07
D177 n178 0 dm1 AREA=8.084e-07
D178 n179 0 dm1 AREA=2.384e-06
D179 n180 0 dm1 AREA=6.449e-07
D180 n181 0 dm1 AREA=6.942e-07
D181 n182 0 dm1 AREA=1.509e-06
D182 n183 0 dm1 AREA=9.229e-07
D183 n184 0 dm1 AREA=1.682e-06
D184 n185 0 dm1 AREA=1.518e-06
D185 n186 0 dm1 AREA=4.404e-07
D186 n187 0 dm1 AREA=6.991e-07
D187 n188 0 dm1 AREA=5.162e-07
D188 n189 0 dm1 AREA=5.656e-07
D189 n190 0 dm1 AREA=8.403e-07
D190 n191 0 dm1 AREA=8.540e-07
D191 n192 0 dm1 AREA=9.868e-07
D192 n193 0 dm1 AREA=8.153e-07
D193 n194 0 dm1 AREA=9.817e-07
D194 n195 0 dm1 AREA=1.354e-06
D195 n196 0 dm1 AREA=7.490e-07
D196 n197 0 dm1 AREA=1.812e-06
D197 n198 0 dm1 AREA=6.654e-07
D198 n199 0 dm1 AREA=7.075e-07
D199 n200 0 dm1 AREA=4.573e-07
D200 n201 0 dm1 AREA=5.507e-07
D201 n202 0 dm1 AREA=8.823e-07
D202 n203 0 dm1 AREA=6.509e-07
D203 n204 0 dm1 AREA=1.134e-06
D204 n205 0 dm1 AREA=9.513e-07
D205 n206 0 dm1 AREA=9.713e-07
D206 n207 0 dm1 AREA=2.493e-07
D207 n208 0 dm1 AREA=6.778e-07
D208 n209 0 dm1 AREA=4.802e-07
D209 n210 0 dm1 AREA=1.116e-06
D210 n211 0 dm1 AREA=6.809e-07
D211 n212 0 dm1 AREA=1.257e-06
D212 n213 0 dm1 AREA=4.486e-07
D213 n214 0 dm1 AREA=6.301e-07
D214 n215 0 dm1 AREA=6.827e-07
D215 n216 0 dm1 AREA=1.134e-06
D216 n217 0 dm1 AREA=5.581e-07
D217 n218 0 dm1 AREA=9.403e-07
D218 n219 0 dm1 AREA=2.426e-06
D219 n220 0 dm1 AREA=1.740e-06
D220 n221 0 dm1 AREA=7.440e-07
D221 n222 0 dm1 AREA=6.907e-07
D222 n223 0 dm1 AREA=7.625e-07
D223 n224 0 dm1 AREA=1.246e-06
D224 n225 0 dm1 AREA=8.199e-07
D225 n226 0 dm1 AREA=2.846e-07
D226 n227 0 dm1 AREA=1.329e-06
D227 n228 0 dm1 AREA=8.607e-07
D228 n229 0 dm1 AREA=4.208e-07
D229 n230 0 dm1 AREA=1.091e-06
D230 n231 0 dm1 AREA=7.345e-07
D231 n1 0 dm1 AREA=5.216e-07
D232 n233 0 dm1 AREA=8.843e-07
D233 n234 0 dm1 AREA=9.722e-07
D234 n235 0 dm1 AREA=5.683e-07
D235 n236 0 dm1 AREA=1.589e-06
D236 n237 0 dm1 AREA=1.701e-06
D237 n238 0 dm1 AREA=6.146e-07
D238 n239 0 dm1 AREA=4.949e-07
D239 n240 0 dm1 AREA=8.789e-07
D240 n241 0 dm1 AREA=5.355e-07
D241 n242 0 dm1 AREA=8.667e-07
D242 n243 0 dm1 AREA=1.357e-06
D243 n244 0 dm1 AREA=1.330e-06
D244 n245 0 dm1 AREA=2.681e-06
D245 n246 0 dm1 AREA=3.731e-07
D246 n247 0 dm1 AREA=4.759e-07
D247 n248 0 dm1 AREA=5.027e-07
D248 n249 0 dm1 AREA=6.673e-07
D249 n250 0 dm1 AREA=6.688e-07
D250 n251 0 dm1 AREA=3.095e-07
D251 n252 0 dm1 AREA=5.354e-07
D252 n253 0 dm1 AREA=1.169e-06
D253 n254 0 dm1 AREA=7.403e-07
D254 n255 0 dm1 AREA=1.281e-06
D255 n256 0 dm1 AREA=1.042e-06
D256 n257 0 dm1 AREA=8.482e-07
D257 n258 0 dm1 AREA=8.679e-07
D258 n259 0 dm1 AREA=8.126e-07
D259 n260 0 dm1 AREA=3.252e-07
D260 n261 0 dm1 AREA=9.272e-07
D261 n262 0 dm1 AREA=1.268e-06
D262 n263 0 dm1 AREA=9.098e-07
D263 n264 0 dm1 AREA=1.573e-06
D264 n265 0 dm1 AREA=7.835e-07
D265 n266 0 dm1 AREA=7.864e-07
D266 n267 0 dm1 AREA=9.937e-07
D267 n268 0 dm1 AREA=7.115e-07
D268 n269 0 dm1 AREA=1.178e-06
D269 n270 0 dm1 AREA=1.136e-06
D270 n271 0 dm1 AREA=6.752e-07
D271 n272 0 dm1 AREA=1.939e-06
D272 n273 0 dm1 AREA=1.347e-06
D273 n274 0 dm1 AREA=3.438e-07
D274 n275 0 dm1 AREA=1.341e-06
D275 n276 0 dm1 AREA=1.514e-06
D276 n277 0 dm1 AREA=2.482e-07
D277 n278 0 dm1 AREA=1.151e-06
D278 n1 0 dm1 AREA=9.026e-07
D279 n280 0 dm1 AREA=1.337e-06
D280 n281 0 dm1 AREA=7.364e-07
D281 n282 0 dm1 AREA=9.972e-07
D282 n283 0 dm1 AREA=1.071e-06
D283 n284 0 dm1 AREA=7.243e-07
D284 n285 0 dm1 AREA=7.236e-07
D285 n286 0 dm1 AREA=1.355e-06
D286 n287 0 dm1 AREA=2.349e-07
D287 n288 0 dm1 AREA=1.070e-06
D288 n289 0 dm1 AREA=8.990e-07
D289 n290 0 dm1 AREA=2.352e-07
D290 n291 0 dm1 AREA=9.428e-07
D291 n292 0 dm1 AREA=6.823e-07
D292 n293 0 dm1 AREA=1.057e-06
D293 n294 0 dm1 AREA=7.779e-07
D294 n295 0 dm1 AREA=6.273e-07
D295 n296 0 dm1 AREA=4.362e-07
D296 n297 0 dm1 AREA=9.841e-07
D297 n298 0 dm1 AREA=1.390e-06
D298 n299 0 dm1 AREA=6.086e-07
D299 n300 0 dm1 AREA=4.720e-07
D300 n301 0 dm1 AREA=4.765e-07
D301 n302 0 dm1 AREA=6.769e-07
D302 n303 0 dm1 AREA=1.955e-06
D303 n304 0 dm1 AREA=4.579e-07
D304 n305 0 dm1 AREA=5.280e-07
D305 n306 0 dm1 AREA=1.382e-06
D306 n307 0 dm1 AREA=5.889e-07
D307 n308 0 dm1 AREA=2.202e-07
D308 n309 0 dm1 AREA=6.689e-07
D309 n310 0 dm1 AREA=9.813e-07
D310 n311 0 dm1 AREA=1.336e-06
D311 n312 0 dm1 AREA=8.846e-07
D312 n313 0 dm1 AREA=7.759e-07
D313 n314 0 dm1 AREA=1.305e-06
D314 n315 0 dm1 AREA=4.139e-07
D315 n1 0 dm1 AREA=7.449e-07
D316 n317 0 dm1 AREA=4.299e-07
D317 n318 0 dm1 AREA=1.609e-06
D318 n319 0 dm1 AREA=7.397e-07
D319 n320 0 dm1 AREA=1.098e-06
D320 n321 0 dm1 AREA=3.681e-07
D321 n322 0 dm1 AREA=6.883e-07
D322 n323 0 dm1 AREA=7.436e-07
D323 n324 0 dm1 AREA=7.772e-07
D324 n325 0 dm1 AREA=1.470e-06
D325 n326 0 dm1 AREA=1.354e-06
D326 n327 0 dm1 AREA=5.480e-07
D327 n328 0 dm1 AREA=2.118e-06
D328 n329 0 dm1 AREA=1.825e-06
D329 n330 0 dm1 AREA=9.061e-07
D330 n331 0 dm1 AREA=1.019e-06
D331 n332 0 dm1 AREA=2.233e-06
D332 n333 0 dm1 AREA=2.277e-06
D333 n334 0 dm1 AREA=1.181e-06
D334 n335 0 dm1 AREA=1.263e-06
D335 n336 0 dm1 AREA=4.404e-07
D336 n337 0 dm1 AREA=1.720e-06
D337 n338 0 dm1 AREA=1.274e-06
D338 n339 0 dm1 AREA=1.582e-06
D339 n340 0 dm1 AREA=1.324e-06
D340 n341 0 dm1 AREA=4.545e-07
D341 n342 0 dm1 AREA=1.200e-06
D342 n343 0 dm1 AREA=1.324e-06
D343 n344 0 dm1 AREA=6.992e-07
D344 n345 0 dm1 AREA=2.438e-07
D345 n346 0 dm1 AREA=4.069e-07
D346 n347 0 dm1 AREA=5.276e-07
D347 n348 0 dm1 AREA=1.262e-06
D348 n349 0 dm1 AREA=1.625e-06
D349 n350 0 dm1 AREA=1.254e-06
D350 n351 0 dm1 AREA=8.401e-07
D351 n352 0 dm1 AREA=1.061e-06
D352 n353 0 dm1 AREA=1.533e-06
D353 n354 0 dm1 AREA=6.102e-07
D354 n355 0 dm1 AREA=1.656e-06
D355 n356 0 dm1 AREA=3.360e-07
D356 n357 0 dm1 AREA=5.933e-07
D357 n358 0 dm1 AREA=3.864e-07
D358 n359 0 dm1 AREA=1.766e-06
D359 n360 0 dm1 AREA=1.469e-06
D360 n361 0 dm1 AREA=7.867e-07
D361 n362 0 dm1 AREA=1.945e-06
D362 n363 0 dm1 AREA=1.010e-06
D363 n364 0 dm1 AREA=8.332e-07
D364 n365 0 dm1 AREA=5.336e-07
D365 n366 0 dm1 AREA=1.826e-06
D366 n367 0 dm1 AREA=2.866e-06
D367 n368 0 dm1 AREA=2.610e-06
D368 n369 0 dm1 AREA=1.125e-06
D369 n370 0 dm1 AREA=1.360e-06
D370 n371 0 dm1 AREA=7.868e-07
D371 n372 0 dm1 AREA=2.445e-06
D372 n373 0 dm1 AREA=9.505e-07
D373 n374 0 dm1 AREA=2.399e-06
D374 n375 0 dm1 AREA=4.883e-07
D375 n376 0 dm1 AREA=1.763e-06
D376 n377 0 dm1 AREA=3.044e-07
D377 n378 0 dm1 AREA=8.654e-07
D378 n379 0 dm1 AREA=6.796e-07
D379 n380 0 dm1 AREA=6.514e-07
D380 n381 0 dm1 AREA=7.339e-07
D381 n382 0 dm1 AREA=2.187e-06
D382 n383 0 dm1 AREA=1.229e-06
D383 n384 0 dm1 AREA=1.327e-06
D384 n385 0 dm1 AREA=3.797e-07
D385 n386 0 dm1 AREA=7.583e-07
D386 n387 0 dm1 AREA=9.801e-07
D387 n388 0 dm1 AREA=3.110e-07
D388 n389 0 dm1 AREA=5.515e-07
D389 n390 0 dm1 AREA=9.278e-07
D390 n391 0 dm1 AREA=9.598e-07
D391 n392 0 dm1 AREA=6.058e-07
D392 n393 0 dm1 AREA=1.298e-06
D393 n394 0 dm1 AREA=1.708e-06
D394 n395 0 dm1 AREA=7.262e-07
D395 n396 0 dm1 AREA=7.621e-07
D396 n397 0 dm1 AREA=7.406e-07
D397 n398 0 dm1 AREA=3.543e-07
D398 n1 0 dm1 AREA=2.022e-06
D399 n400 0 dm1 AREA=9.956e-07
D400 n401 0 dm1 AREA=6.255e-07
D401 n402 0 dm1 AREA=2.440e-06
D402 n403 0 dm1 AREA=1.041e-06
D403 n404 0 dm1 AREA=1.239e-06
D404 n405 0 dm1 AREA=1.294e-06
D405 n406 0 dm1 AREA=5.010e-07
D406 n407 0 dm1 AREA=6.876e-07
D407 n408 0 dm1 AREA=5.898e-07
D408 n409 0 dm1 AREA=7.510e-07
D409 n410 0 dm1 AREA=1.159e-06
D410 n411 0 dm1 AREA=5.910e-07
D411 n412 0 dm1 AREA=9.142e-07
D412 n413 0 dm1 AREA=1.595e-06
D413 n414 0 dm1 AREA=1.823e-07
D414 n415 0 dm1 AREA=1.948e-06
D415 n416 0 dm1 AREA=4.165e-07
D416 n417 0 dm1 AREA=5.817e-07
D417 n418 0 dm1 AREA=8.565e-07
D418 n419 0 dm1 AREA=4.761e-07
D419 n420 0 dm1 AREA=4.035e-07
D420 n421 0 dm1 AREA=1.128e-06
D421 n422 0 dm1 AREA=1.595e-07
D422 n423 0 dm1 AREA=2.733e-06
D423 n424 0 dm1 AREA=2.891e-06
D424 n425 0 dm1 AREA=1.096e-06
D425 n426 0 dm1 AREA=1.094e-06
D426 n427 0 dm1 AREA=7.784e-07
D427 n428 0 dm1 AREA=1.669e-06
D428 n429 0 dm1 AREA=1.020e-06
D429 n430 0 dm1 AREA=1.547e-06
D430 n431 0 dm1 AREA=8.184e-07
D431 n432 0 dm1 AREA=6.470e-07
D432 n433 0 dm1 AREA=6.844e-07
D433 n434 0 dm1 AREA=1.030e-06
D434 n435 0 dm1 AREA=9.088e-07
D435 n436 0 dm1 AREA=1.017e-06
D436 n437 0 dm1 AREA=8.821e-07
D437 n438 0 dm1 AREA=1.395e-06
D438 n439 0 dm1 AREA=5.393e-07
D439 n440 0 dm1 AREA=7.949e-07
D440 n441 0 dm1 AREA=1.985e-06
D441 n442 0 dm1 AREA=1.463e-07
D442 n443 0 dm1 AREA=1.672e-06
D443 n444 0 dm1 AREA=1.318e-06
D444 n445 0 dm1 AREA=1.108e-06
D445 n446 0 dm1 AREA=5.204e-07
D446 n447 0 dm1 AREA=1.397e-06
D447 n448 0 dm1 AREA=1.727e-06
D448 n449 0 dm1 AREA=4.613e-07
D449 n450 0 dm1 AREA=5.923e-07
D450 n451 0 dm1 AREA=1.643e-06
D451 n452 0 dm1 AREA=4.584e-07
D452 n453 0 dm1 AREA=1.333e-06
D453 n454 0 dm1 AREA=9.004e-07
D454 n455 0 dm1 AREA=3.383e-07
D455 n456 0 dm1 AREA=8.690e-07
D456 n457 0 dm1 AREA=1.395e-06
D457 n458 0 dm1 AREA=1.516e-06
D458 n459 0 dm1 AREA=3.992e-07
D459 n460 0 dm1 AREA=1.329e-06
D460 n461 0 dm1 AREA=9.907e-07
D461 n462 0 dm1 AREA=1.011e-06
D462 n463 0 dm1 AREA=2.384e-07
D463 n464 0 dm1 AREA=1.321e-06
D464 n465 0 dm1 AREA=2.070e-07
D465 n466 0 dm1 AREA=8.158e-07
D466 n467 0 dm1 AREA=9.289e-07
D467 n468 0 dm1 AREA=9.012e-07
D468 n469 0 dm1 AREA=8.395e-07
D469 n470 0 dm1 AREA=1.493e-06
D470 n471 0 dm1 AREA=1.527e-06
D471 n472 0 dm1 AREA=1.243e-06
D472 n473 0 dm1 AREA=1.916e-06
D473 n474 0 dm1 AREA=4.917e-07
D474 n475 0 dm1 AREA=5.112e-07
D475 n476 0 dm1 AREA=4.157e-07
D476 n477 0 dm1 AREA=2.187e-06
D477 n478 0 dm1 AREA=8.166e-07
D478 n479 0 dm1 AREA=1.621e-06
D479 n480 0 dm1 AREA=7.468e-07
D480 n481 0 dm1 AREA=4.014e-07
D481 n482 0 dm1 AREA=1.442e-06
D482 n483 0 dm1 AREA=3.818e-07
D483 n1 0 dm1 AREA=1.741e-06
D484 n485 0 dm1 AREA=1.495e-06
D485 n486 0 dm1 AREA=2.334e-06
D486 n487 0 dm1 AREA=6.252e-07
D487 n488 0 dm1 AREA=9.676e-07
D488 n489 0 dm1 AREA=1.114e-06
D489 n490 0 dm1 AREA=1.564e-07
D490 n491 0 dm1 AREA=2.065e-07
D491 n492 0 dm1 AREA=5.031e-07
D492 n493 0 dm1 AREA=2.327e-07
D493 n494 0 dm1 AREA=9.968e-07
D494 n495 0 dm1 AREA=7.256e-07
D495 n496 0 dm1 AREA=8.804e-07
D496 n497 0 dm1 AREA=6.504e-07
D497 n498 0 dm1 AREA=7.260e-07
D498 n499 0 dm1 AREA=5.206e-07
D499 n500 0 dm1 AREA=7.546e-07
D500 n501 0 dm1 AREA=1.110e-06
D501 n502 0 dm1 AREA=5.420e-07
D502 n503 0 dm1 AREA=5.765e-07
D503 n504 0 dm1 AREA=1.127e-06
D504 n505 0 dm1 AREA=1.644e-06
D505 n506 0 dm1 AREA=6.800e-07
D506 n507 0 dm1 AREA=1.084e-06
D507 n508 0 dm1 AREA=8.842e-07
D508 n509 0 dm1 AREA=1.732e-06
D509 n510 0 dm1 AREA=6.401e-07
D510 n511 0 dm1 AREA=1.119e-06
D511 n512 0 dm1 AREA=6.554e-07
D512 n513 0 dm1 AREA=1.146e-06
D513 n514 0 dm1 AREA=5.660e-07
D514 n515 0 dm1 AREA=7.115e-07
D515 n516 0 dm1 AREA=3.132e-07
D516 n517 0 dm1 AREA=7.536e-07
D517 n518 0 dm1 AREA=4.545e-07
D518 n519 0 dm1 AREA=6.963e-07
D519 n520 0 dm1 AREA=1.551e-06
D520 n521 0 dm1 AREA=6.956e-07
D521 n522 0 dm1 AREA=4.249e-07
D522 n523 0 dm1 AREA=2.653e-06
D523 n524 0 dm1 AREA=4.144e-07
D524 n525 0 dm1 AREA=1.132e-06
D525 n526 0 dm1 AREA=4.858e-07
D526 n527 0 dm1 AREA=1.065e-06
D527 n528 0 dm1 AREA=5.348e-07
D528 n529 0 dm1 AREA=1.303e-06
D529 n530 0 dm1 AREA=9.905e-07
D530 n531 0 dm1 AREA=2.518e-06
D531 n532 0 dm1 AREA=3.039e-07
D532 n533 0 dm1 AREA=2.148e-06
D533 n534 0 dm1 AREA=1.418e-06
D534 n535 0 dm1 AREA=3.358e-07
D535 n536 0 dm1 AREA=1.002e-06
D536 n537 0 dm1 AREA=2.771e-06
D537 n538 0 dm1 AREA=1.420e-06
D538 n539 0 dm1 AREA=8.497e-07
D539 n540 0 dm1 AREA=6.195e-07
D540 n541 0 dm1 AREA=7.575e-07
D541 n542 0 dm1 AREA=5.202e-07
D542 n543 0 dm1 AREA=1.725e-06
D543 n544 0 dm1 AREA=1.543e-06
D544 n545 0 dm1 AREA=1.047e-06
D545 n546 0 dm1 AREA=1.214e-06
D546 n547 0 dm1 AREA=7.092e-07
D547 n548 0 dm1 AREA=1.039e-06
D548 n549 0 dm1 AREA=8.370e-07
D549 n550 0 dm1 AREA=1.026e-06
D550 n551 0 dm1 AREA=1.716e-06
D551 n552 0 dm1 AREA=1.060e-06
D552 n553 0 dm1 AREA=1.036e-06
D553 n554 0 dm1 AREA=8.584e-07
D554 n555 0 dm1 AREA=1.142e-06
D555 n556 0 dm1 AREA=2.729e-07
D556 n557 0 dm1 AREA=1.723e-06
D557 n558 0 dm1 AREA=1.134e-06
D558 n559 0 dm1 AREA=8.916e-07
D559 n560 0 dm1 AREA=1.157e-06
D560 n561 0 dm1 AREA=1.700e-06
D561 n562 0 dm1 AREA=5.669e-07
D562 n563 0 dm1 AREA=1.389e-06
D563 n564 0 dm1 AREA=8.302e-07
D564 n565 0 dm1 AREA=3.631e-07
D565 n566 0 dm1 AREA=1.395e-06
D566 n567 0 dm1 AREA=8.817e-07
D567 n568 0 dm1 AREA=1.328e-06
D568 n569 0 dm1 AREA=1.430e-07
D569 n570 0 dm1 AREA=1.166e-06
D570 n571 0 dm1 AREA=3.760e-07
D571 n572 0 dm1 AREA=3.458e-07
D572 n573 0 dm1 AREA=1.021e-06
D573 n574 0 dm1 AREA=1.208e-06
D574 n575 0 dm1 AREA=6.848e-07
D575 n576 0 dm1 AREA=1.041e-06
D576 n577 0 dm1 AREA=1.532e-06
D577 n578 0 dm1 AREA=2.659e-07
D578 n579 0 dm1 AREA=1.078e-06
D579 n580 0 dm1 AREA=1.701e-06
D580 n581 0 dm1 AREA=2.596e-06
D581 n582 0 dm1 AREA=6.833e-07
D582 n583 0 dm1 AREA=1.255e-06
D583 n584 0 dm1 AREA=1.144e-06
D584 n585 0 dm1 AREA=1.042e-06
D585 n586 0 dm1 AREA=9.609e-07
D586 n587 0 dm1 AREA=1.201e-06
D587 n588 0 dm1 AREA=7.061e-07
D588 n589 0 dm1 AREA=4.006e-07
D589 n590 0 dm1 AREA=7.860e-07
D590 n591 0 dm1 AREA=1.772e-06
D591 n592 0 dm1 AREA=2.688e-07
D592 n593 0 dm1 AREA=1.070e-06
D593 n594 0 dm1 AREA=1.358e-06
D594 n595 0 dm1 AREA=1.045e-06
D595 n596 0 dm1 AREA=1.221e-06
D596 n597 0 dm1 AREA=9.846e-07
D597 n598 0 dm1 AREA=8.173e-07
D598 n599 0 dm1 AREA=5.454e-07
D599 n600 0 dm1 AREA=5.407e-07
D600 n601 0 dm1 AREA=7.823e-07
D601 n602 0 dm1 AREA=1.302e-06
D602 n603 0 dm1 AREA=9.015e-07
D603 n604 0 dm1 AREA=3.196e-07
D604 n605 0 dm1 AREA=1.333e-06
D605 n606 0 dm1 AREA=1.468e-06
D606 n607 0 dm1 AREA=1.006e-06
D607 n608 0 dm1 AREA=7.249e-07
D608 n609 0 dm1 AREA=1.080e-06
D609 n610 0 dm1 AREA=5.515e-07
D610 n611 0 dm1 AREA=1.474e-07
D611 n612 0 dm1 AREA=1.182e-06
D612 n613 0 dm1 AREA=8.533e-07
D613 n614 0 dm1 AREA=1.245e-06
D614 n615 0 dm1 AREA=9.486e-07
D615 n616 0 dm1 AREA=4.132e-07
D616 n617 0 dm1 AREA=2.537e-06
D617 n618 0 dm1 AREA=1.319e-06
D618 n619 0 dm1 AREA=1.278e-06
D619 n620 0 dm1 AREA=7.625e-07
D620 n621 0 dm1 AREA=6.512e-07
D621 n622 0 dm1 AREA=4.605e-07
D622 n623 0 dm1 AREA=1.017e-06
D623 n624 0 dm1 AREA=7.482e-07
D624 n625 0 dm1 AREA=6.140e-07
D625 n626 0 dm1 AREA=9.329e-07
D626 n627 0 dm1 AREA=2.441e-07
D627 n628 0 dm1 AREA=6.617e-07
D628 n629 0 dm1 AREA=5.607e-07
D629 n630 0 dm1 AREA=1.689e-06
D630 n631 0 dm1 AREA=4.120e-07
D631 n632 0 dm1 AREA=1.529e-06
D632 n633 0 dm1 AREA=4.789e-07
D633 n634 0 dm1 AREA=6.100e-07
D634 n635 0 dm1 AREA=2.032e-06
D635 n636 0 dm1 AREA=8.097e-07
D636 n637 0 dm1 AREA=4.979e-07
D637 n638 0 dm1 AREA=6.579e-07
D638 n639 0 dm1 AREA=2.312e-06
D639 n640 0 dm1 AREA=8.503e-07
D640 n641 0 dm1 AREA=8.522e-07
D641 n642 0 dm1 AREA=1.832e-06
D642 n643 0 dm1 AREA=6.469e-07
D643 n644 0 dm1 AREA=1.411e-06
D644 n645 0 dm1 AREA=4.632e-07
D645 n646 0 dm1 AREA=4.822e-07
D646 n647 0 dm1 AREA=2.553e-06
D647 n648 0 dm1 AREA=1.207e-06
D648 n649 0 dm1 AREA=1.278e-06
D649 n650 0 dm1 AREA=2.471e-06
D650 n651 0 dm1 AREA=8.734e-07
D651 n652 0 dm1 AREA=8.160e-07
D652 n653 0 dm1 AREA=6.939e-07
D653 n654 0 dm1 AREA=1.272e-06
D654 n655 0 dm1 AREA=8.753e-07
D655 n656 0 dm1 AREA=4.091e-07
D656 n657 0 dm1 AREA=8.357e-07
D657 n658 0 dm1 AREA=4.424e-07
D658 n659 0 dm1 AREA=6.915e-07
D659 n660 0 dm1 AREA=1.832e-06
D660 n661 0 dm1 AREA=1.621e-06
D661 n662 0 dm1 AREA=5.807e-07
D662 n663 0 dm1 AREA=7.805e-07
D663 n664 0 dm1 AREA=5.706e-07
D664 n665 0 dm1 AREA=7.901e-07
D665 n666 0 dm1 AREA=3.967e-07
D666 n667 0 dm1 AREA=1.208e-06
D667 n668 0 dm1 AREA=6.328e-07
D668 n669 0 dm1 AREA=9.679e-07
D669 n670 0 dm1 AREA=1.012e-06
D670 n671 0 dm1 AREA=6.815e-07
D671 n672 0 dm1 AREA=2.757e-06
D672 n673 0 dm1 AREA=1.220e-06
D673 n674 0 dm1 AREA=7.116e-07
D674 n675 0 dm1 AREA=5.721e-07
D675 n676 0 dm1 AREA=7.830e-07
D676 n677 0 dm1 AREA=1.020e-06
D677 n678 0 dm1 AREA=8.388e-07
D678 n679 0 dm1 AREA=6.864e-07
D679 n680 0 dm1 AREA=4.344e-07
D680 n681 0 dm1 AREA=1.602e-06
D681 n682 0 dm1 AREA=7.698e-07
D682 n683 0 dm1 AREA=9.344e-07
D683 n684 0 dm1 AREA=7.830e-07
D684 n685 0 dm1 AREA=2.538e-07
D685 n686 0 dm1 AREA=1.614e-06
D686 n687 0 dm1 AREA=7.077e-07
D687 n688 0 dm1 AREA=2.719e-06
D688 n689 0 dm1 AREA=1.071e-06
D689 n690 0 dm1 AREA=1.302e-06
D690 n691 0 dm1 AREA=9.688e-07
D691 n692 0 dm1 AREA=1.310e-06
D692 n1 0 dm1 AREA=9.627e-07
D693 n694 0 dm1 AREA=8.444e-07
D694 n695 0 dm1 AREA=1.319e-06
D695 n696 0 dm1 AREA=9.658e-07
D696 n697 0 dm1 AREA=5.479e-07
D697 n698 0 dm1 AREA=8.982e-07
D698 n699 0 dm1 AREA=2.068e-06
D699 n700 0 dm1 AREA=1.241e-07
D700 n701 0 dm1 AREA=4.449e-07
D701 n702 0 dm1 AREA=6.839e-07
D702 n703 0 dm1 AREA=8.093e-07
D703 n704 0 dm1 AREA=8.449e-07
D704 n705 0 dm1 AREA=4.703e-07
D705 n706 0 dm1 AREA=1.589e-06
D706 n707 0 dm1 AREA=1.006e-06
D707 n708 0 dm1 AREA=4.137e-07
D708 n709 0 dm1 AREA=2.921e-06
D709 n710 0 dm1 AREA=7.562e-07
D710 n711 0 dm1 AREA=1.619e-06
D711 n712 0 dm1 AREA=1.436e-06
D712 n713 0 dm1 AREA=4.636e-07
D713 n714 0 dm1 AREA=9.167e-07
D714 n715 0 dm1 AREA=1.103e-06
D715 n716 0 dm1 AREA=7.594e-07
D716 n717 0 dm1 AREA=7.290e-07
D717 n718 0 dm1 AREA=5.351e-07
D718 n719 0 dm1 AREA=1.626e-06
D719 n720 0 dm1 AREA=7.818e-07
D720 n721 0 dm1 AREA=9.533e-07
D721 n722 0 dm1 AREA=1.174e-06
D722 n723 0 dm1 AREA=2.427e-07
D723 n724 0 dm1 AREA=3.644e-07
D724 n725 0 dm1 AREA=1.509e-06
D725 n726 0 dm1 AREA=1.380e-06
D726 n727 0 dm1 AREA=1.082e-06
D727 n728 0 dm1 AREA=1.043e-06
D728 n729 0 dm1 AREA=7.722e-07
D729 n730 0 dm1 AREA=1.048e-06
D730 n731 0 dm1 AREA=6.595e-07
D731 n732 0 dm1 AREA=1.301e-06
D732 n733 0 dm1 AREA=4.704e-07
D733 n734 0 dm1 AREA=3.492e-07
D734 n735 0 dm1 AREA=1.642e-06
D735 n736 0 dm1 AREA=9.426e-07
D736 n737 0 dm1 AREA=1.462e-06
D737 n738 0 dm1 AREA=2.224e-06
D738 n739 0 dm1 AREA=1.663e-06
D739 n740 0 dm1 AREA=4.546e-07
D740 n741 0 dm1 AREA=1.365e-06
D741 n742 0 dm1 AREA=8.754e-07
D742 n743 0 dm1 AREA=4.151e-07
D743 n744 0 dm1 AREA=9.681e-07
D744 n745 0 dm1 AREA=7.806e-07
D745 n746 0 dm1 AREA=7.657e-07
D746 n747 0 dm1 AREA=1.069e-06
D747 n748 0 dm1 AREA=8.348e-07
D748 n749 0 dm1 AREA=8.844e-07
D749 n750 0 dm1 AREA=4.445e-07
D750 n751 0 dm1 AREA=1.017e-06
D751 n752 0 dm1 AREA=8.947e-07
D752 n753 0 dm1 AREA=2.024e-06
D753 n754 0 dm1 AREA=1.145e-06
D754 n755 0 dm1 AREA=2.592e-06
D755 n756 0 dm1 AREA=4.768e-07
D756 n757 0 dm1 AREA=5.990e-07
D757 n758 0 dm1 AREA=2.135e-06
D758 n759 0 dm1 AREA=1.491e-06
D759 n760 0 dm1 AREA=6.513e-07
D760 n761 0 dm1 AREA=7.460e-07
D761 n762 0 dm1 AREA=1.779e-06
D762 n763 0 dm1 AREA=2.858e-07
D763 n764 0 dm1 AREA=6.881e-07
D764 n765 0 dm1 AREA=1.110e-06
D765 n766 0 dm1 AREA=8.967e-07
D766 n767 0 dm1 AREA=1.082e-06
D767 n768 0 dm1 AREA=1.366e-06
D768 n769 0 dm1 AREA=1.290e-06
D769 n770 0 dm1 AREA=5.053e-07
D770 n771 0 dm1 AREA=8.371e-07
D771 n772 0 dm1 AREA=3.644e-06
D772 n773 0 dm1 AREA=4.643e-07
D773 n774 0 dm1 AREA=7.137e-07
D774 n775 0 dm1 AREA=8.266e-07
D775 n776 0 dm1 AREA=7.646e-07
D776 n777 0 dm1 AREA=4.175e-07
D777 n778 0 dm1 AREA=8.160e-07
D778 n779 0 dm1 AREA=1.271e-06
D779 n780 0 dm1 AREA=9.448e-07
D780 n781 0 dm1 AREA=1.181e-06
D781 n782 0 dm1 AREA=8.394e-07
D782 n783 0 dm1 AREA=1.034e-06
D783 n784 0 dm1 AREA=1.016e-06
D784 n785 0 dm1 AREA=1.579e-06
D785 n786 0 dm1 AREA=2.905e-07
D786 n787 0 dm1 AREA=8.890e-07
D787 n788 0 dm1 AREA=1.613e-06
D788 n789 0 dm1 AREA=1.568e-06
D789 n790 0 dm1 AREA=6.790e-07
D790 n791 0 dm1 AREA=5.599e-07
D791 n792 0 dm1 AREA=4.254e-07
D792 n793 0 dm1 AREA=1.426e-06
D793 n794 0 dm1 AREA=1.074e-06
D794 n795 0 dm1 AREA=1.205e-06
D795 n796 0 dm1 AREA=2.887e-07
D796 n797 0 dm1 AREA=1.008e-06
D797 n798 0 dm1 AREA=8.800e-07
D798 n799 0 dm1 AREA=1.179e-06
D799 n800 0 dm1 AREA=8.074e-07
D800 n801 0 dm1 AREA=1.492e-06
D801 n802 0 dm1 AREA=2.088e-07
D802 n803 0 dm1 AREA=5.726e-07
D803 n804 0 dm1 AREA=5.478e-07
D804 n805 0 dm1 AREA=4.491e-07
D805 n806 0 dm1 AREA=1.179e-06
D806 n807 0 dm1 AREA=1.456e-06
D807 n808 0 dm1 AREA=1.467e-06
D808 n809 0 dm1 AREA=1.305e-06
D809 n810 0 dm1 AREA=9.733e-07
D810 n811 0 dm1 AREA=6.564e-07
D811 n812 0 dm1 AREA=1.036e-06
D812 n813 0 dm1 AREA=1.277e-06
D813 n814 0 dm1 AREA=1.457e-06
D814 n815 0 dm1 AREA=1.073e-06
D815 n816 0 dm1 AREA=9.696e-07
D816 n817 0 dm1 AREA=1.324e-06
D817 n818 0 dm1 AREA=7.199e-07
D818 n819 0 dm1 AREA=1.143e-06
D819 n820 0 dm1 AREA=5.278e-07
D820 n821 0 dm1 AREA=1.282e-06
D821 n822 0 dm1 AREA=3.693e-07
D822 n823 0 dm1 AREA=1.002e-06
D823 n824 0 dm1 AREA=9.389e-07
D824 n825 0 dm1 AREA=9.990e-07
D825 n826 0 dm1 AREA=8.635e-07
D826 n827 0 dm1 AREA=2.124e-06
D827 n828 0 dm1 AREA=3.769e-07
D828 n829 0 dm1 AREA=1.358e-06
D829 n830 0 dm1 AREA=1.949e-06
D830 n831 0 dm1 AREA=8.666e-07
D831 n832 0 dm1 AREA=1.415e-06
D832 n833 0 dm1 AREA=1.190e-06
D833 n834 0 dm1 AREA=7.378e-07
D834 n835 0 dm1 AREA=1.567e-06
D835 n836 0 dm1 AREA=3.189e-06
D836 n837 0 dm1 AREA=4.309e-07
D837 n838 0 dm1 AREA=1.753e-06
D838 n839 0 dm1 AREA=5.664e-07
D839 n840 0 dm1 AREA=6.919e-07
D840 n841 0 dm1 AREA=1.223e-06
D841 n842 0 dm1 AREA=1.605e-06
D842 n843 0 dm1 AREA=2.555e-07
D843 n844 0 dm1 AREA=1.040e-06
D844 n845 0 dm1 AREA=5.596e-07
D845 n846 0 dm1 AREA=1.171e-06
D846 n847 0 dm1 AREA=6.538e-07
D847 n848 0 dm1 AREA=1.390e-06
D848 n849 0 dm1 AREA=7.676e-07
D849 n850 0 dm1 AREA=7.106e-07
D850 n851 0 dm1 AREA=1.389e-06
D851 n852 0 dm1 AREA=7.680e-07
D852 n853 0 dm1 AREA=1.879e-06
D853 n854 0 dm1 AREA=6.843e-07
D854 n855 0 dm1 AREA=1.364e-06
D855 n856 0 dm1 AREA=9.267e-07
D856 n857 0 dm1 AREA=7.744e-07
D857 n858 0 dm1 AREA=1.019e-06
D858 n859 0 dm1 AREA=3.636e-07
D859 n860 0 dm1 AREA=1.017e-06
D860 n861 0 dm1 AREA=2.092e-06
D861 n862 0 dm1 AREA=2.075e-06
D862 n863 0 dm1 AREA=6.749e-07
D863 n864 0 dm1 AREA=1.304e-06
D864 n865 0 dm1 AREA=8.745e-07
D865 n866 0 dm1 AREA=1.672e-06
D866 n867 0 dm1 AREA=1.071e-06
D867 n868 0 dm1 AREA=2.817e-07
D868 n869 0 dm1 AREA=7.103e-07
D869 n870 0 dm1 AREA=1.391e-06
D870 n871 0 dm1 AREA=1.427e-06
D871 n872 0 dm1 AREA=6.206e-07
D872 n873 0 dm1 AREA=6.815e-07
D873 n874 0 dm1 AREA=1.925e-06
D874 n875 0 dm1 AREA=1.044e-06
D875 n876 0 dm1 AREA=1.427e-06
D876 n877 0 dm1 AREA=5.266e-07
D877 n878 0 dm1 AREA=9.314e-07
D878 n879 0 dm1 AREA=1.726e-06
D879 n880 0 dm1 AREA=6.483e-07
D880 n881 0 dm1 AREA=4.396e-07
D881 n882 0 dm1 AREA=1.986e-06
D882 n883 0 dm1 AREA=5.710e-07
D883 n884 0 dm1 AREA=9.865e-07
D884 n885 0 dm1 AREA=1.026e-06
D885 n886 0 dm1 AREA=1.249e-06
D886 n887 0 dm1 AREA=7.298e-07
D887 n888 0 dm1 AREA=4.309e-07
D888 n889 0 dm1 AREA=2.308e-06
D889 n890 0 dm1 AREA=5.330e-07
D890 n891 0 dm1 AREA=8.695e-07
D891 n892 0 dm1 AREA=7.167e-07
D892 n893 0 dm1 AREA=1.016e-06
D893 n894 0 dm1 AREA=8.941e-07
D894 n895 0 dm1 AREA=7.573e-07
D895 n896 0 dm1 AREA=4.494e-07
D896 n897 0 dm1 AREA=8.369e-07
D897 n1 0 dm1 AREA=3.474e-07
D898 n899 0 dm1 AREA=4.221e-07
D899 n900 0 dm1 AREA=8.044e-07
D900 n901 0 dm1 AREA=2.745e-06
D901 n902 0 dm1 AREA=6.682e-07
D902 n903 0 dm1 AREA=5.532e-07
D903 n904 0 dm1 AREA=1.791e-06
D904 n905 0 dm1 AREA=2.092e-06
D905 n906 0 dm1 AREA=8.343e-07
D906 n907 0 dm1 AREA=1.247e-06
D907 n908 0 dm1 AREA=1.603e-06
D908 n909 0 dm1 AREA=4.201e-07
D909 n910 0 dm1 AREA=6.467e-07
D910 n911 0 dm1 AREA=1.276e-06
D911 n912 0 dm1 AREA=2.583e-07
D912 n913 0 dm1 AREA=5.773e-07
D913 n914 0 dm1 AREA=8.539e-07
D914 n915 0 dm1 AREA=1.703e-06
D915 n916 0 dm1 AREA=4.126e-07
D916 n917 0 dm1 AREA=6.244e-07
D917 n918 0 dm1 AREA=1.805e-06
D918 n919 0 dm1 AREA=6.465e-07
D919 n920 0 dm1 AREA=8.689e-07
D920 n921 0 dm1 AREA=1.794e-06
D921 n922 0 dm1 AREA=1.821e-06
D922 n923 0 dm1 AREA=5.181e-07
D923 n924 0 dm1 AREA=7.770e-07
D924 n925 0 dm1 AREA=5.572e-07
D925 n926 0 dm1 AREA=1.186e-06
D926 n927 0 dm1 AREA=4.811e-07
D927 n928 0 dm1 AREA=5.656e-07
D928 n929 0 dm1 AREA=2.113e-07
D929 n930 0 dm1 AREA=1.283e-06
D930 n931 0 dm1 AREA=7.515e-07
D931 n932 0 dm1 AREA=1.894e-06
D932 n933 0 dm1 AREA=3.893e-07
D933 n934 0 dm1 AREA=1.885e-06
D934 n935 0 dm1 AREA=1.004e-06
D935 n936 0 dm1 AREA=1.174e-07
D936 n937 0 dm1 AREA=8.418e-07
D937 n938 0 dm1 AREA=1.972e-06
D938 n939 0 dm1 AREA=1.454e-06
D939 n940 0 dm1 AREA=6.385e-07
D940 n941 0 dm1 AREA=4.262e-07
D941 n942 0 dm1 AREA=2.533e-07
D942 n943 0 dm1 AREA=3.632e-07
D943 n944 0 dm1 AREA=3.034e-06
D944 n945 0 dm1 AREA=5.936e-07
D945 n946 0 dm1 AREA=1.266e-06
D946 n947 0 dm1 AREA=5.694e-07
D947 n948 0 dm1 AREA=6.230e-07
D948 n949 0 dm1 AREA=9.865e-07
D949 n950 0 dm1 AREA=6.750e-07
D950 n951 0 dm1 AREA=1.849e-06