add20.sp SPICE FILE
.model nenh nmos
+ level = 2
+   vto = 0.688434   kp = 4.769e-05   gamma = 0.399818
+   phi = 0.85
+
+   cgso = 3.54e-10   cgdo = 3.54e-10
+   rsh = 70   cj = 0.000363
+   mj = 0.916   cjsw = 1.83e-10   mjsw = 0.195
+   tox = 2.15e-08   nsub = 1.79246e+16
+   nss = 3e+10   nfs = 10   tpg = 1
+   xj = 9e-07   ld = -8.3e-08   uo = 683.594
+   ucrit = 200   uexp = 0.0177713
+   vmax = 81459.2   neff = 2.18502
+
+   delta = 2.72869
.model penh pmos
+ level = 2
+   vto = -0.635779   kp = 1.91591e-05   gamma = 0.335224
+   phi = 0.85
+
+   cgso = 4.01e-10   cgdo = 4.01e-10
+   rsh = 164   cj = 0.000442
+   mj = 0.3285   cjsw = 2.34e-10   mjsw = 0.307
+   tox = 2.15e-08   nsub = 6e+17
+   nss = 3e+10   nfs = 85.3597   tpg = -1
+   xj = 1e-09   ld = -2.3e-08   uo = 41.2542
+   ucrit = 50408.2   uexp = 0.0976377
+   vmax = 42755.1   neff = 0.0107262
+
+   delta = 4.72482
m0 3 4 0 0 nenh l=1.1e-06 w=8e-06 
+ as=1.32e-11 ad=1.709e-11 ps=1.13e-05 pd=2.054e-05 
+ nrs=0.21 nrd=0.27 
m1 0 5 3 0 nenh l=1.1e-06 w=8e-06 
+ as=1.709e-11 ad=1.32e-11 ps=2.054e-05 pd=1.13e-05 
+ nrs=0.27 nrd=0.21 
m2 6 4 3 1 penh l=1.1e-06 w=2.8e-05 
+ as=2.38e-11 ad=4.06e-11 ps=2.97e-05 pd=6.61e-05 
+ nrs=0.03 nrd=0.05 
m3 1 5 6 1 penh l=1.1e-06 w=2.8e-05 
+ as=5.896e-11 ad=2.38e-11 ps=6.913e-05 pd=2.97e-05 
+ nrs=0.08 nrd=0.03 
m4 7 8 0 0 nenh l=1.1e-06 w=8e-06 
+ as=1.32e-11 ad=1.709e-11 ps=1.13e-05 pd=2.054e-05 
+ nrs=0.21 nrd=0.27 
m5 0 9 7 0 nenh l=1.1e-06 w=8e-06 
+ as=1.709e-11 ad=1.32e-11 ps=2.054e-05 pd=1.13e-05 
+ nrs=0.27 nrd=0.21 
m6 10 8 7 1 penh l=1.1e-06 w=2.8e-05 
+ as=2.38e-11 ad=4.06e-11 ps=2.97e-05 pd=6.61e-05 
+ nrs=0.03 nrd=0.05 
m7 1 9 10 1 penh l=1.1e-06 w=2.8e-05 
+ as=5.896e-11 ad=2.38e-11 ps=6.913e-05 pd=2.97e-05 
+ nrs=0.08 nrd=0.03 
m8 11 4 12 0 nenh l=1.1e-06 w=1.6e-05 
+ as=1.36e-11 ad=2.24e-11 ps=1.77e-05 pd=3.81e-05 
+ nrs=0.05 nrd=0.09 
m9 0 5 11 0 nenh l=1.1e-06 w=1.6e-05 
+ as=3.417e-11 ad=1.36e-11 ps=4.108e-05 pd=1.77e-05 
+ nrs=0.13 nrd=0.05 
m10 12 4 1 1 penh l=1.1e-06 w=1.4e-05 
+ as=2.31e-11 ad=2.948e-11 ps=1.73e-05 pd=3.457e-05 
+ nrs=0.12 nrd=0.15 
m11 1 5 12 1 penh l=1.1e-06 w=1.4e-05 
+ as=2.948e-11 ad=2.31e-11 ps=3.457e-05 pd=1.73e-05 
+ nrs=0.15 nrd=0.12 
m12 13 8 14 0 nenh l=1.1e-06 w=1.6e-05 
+ as=1.36e-11 ad=2.24e-11 ps=1.77e-05 pd=3.81e-05 
+ nrs=0.05 nrd=0.09 
m13 0 9 13 0 nenh l=1.1e-06 w=1.6e-05 
+ as=3.417e-11 ad=1.36e-11 ps=4.108e-05 pd=1.77e-05 
+ nrs=0.13 nrd=0.05 
m14 14 8 1 1 penh l=1.1e-06 w=1.4e-05 
+ as=2.31e-11 ad=2.948e-11 ps=1.73e-05 pd=3.457e-05 
+ nrs=0.12 nrd=0.15 
m15 1 9 14 1 penh l=1.1e-06 w=1.4e-05 
+ as=2.948e-11 ad=2.31e-11 ps=3.457e-05 pd=1.73e-05 
+ nrs=0.15 nrd=0.12 
m16 15 16 0 0 nenh l=1.1e-06 w=8e-06 
+ as=1.32e-11 ad=1.709e-11 ps=1.13e-05 pd=2.054e-05 
+ nrs=0.21 nrd=0.27 
m17 0 17 15 0 nenh l=1.1e-06 w=8e-06 
+ as=1.709e-11 ad=1.32e-11 ps=2.054e-05 pd=1.13e-05 
+ nrs=0.27 nrd=0.21 
m18 18 16 15 1 penh l=1.1e-06 w=2.8e-05 
+ as=2.38e-11 ad=4.06e-11 ps=2.97e-05 pd=6.61e-05 
+ nrs=0.03 nrd=0.05 
m19 1 17 18 1 penh l=1.1e-06 w=2.8e-05 
+ as=5.896e-11 ad=2.38e-11 ps=6.913e-05 pd=2.97e-05 
+ nrs=0.08 nrd=0.03 
m20 19 20 0 0 nenh l=1.1e-06 w=8e-06 
+ as=1.32e-11 ad=1.709e-11 ps=1.13e-05 pd=2.054e-05 
+ nrs=0.21 nrd=0.27 
m21 0 21 19 0 nenh l=1.1e-06 w=8e-06 
+ as=1.709e-11 ad=1.32e-11 ps=2.054e-05 pd=1.13e-05 
+ nrs=0.27 nrd=0.21 
m22 22 20 19 1 penh l=1.1e-06 w=2.8e-05 
+ as=2.38e-11 ad=4.06e-11 ps=2.97e-05 pd=6.61e-05 
+ nrs=0.03 nrd=0.05 
m23 1 21 22 1 penh l=1.1e-06 w=2.8e-05 
+ as=5.896e-11 ad=2.38e-11 ps=6.913e-05 pd=2.97e-05 
+ nrs=0.08 nrd=0.03 
m24 0 19 23 0 nenh l=1.1e-06 w=8.4e-06 
+ as=1.794e-11 ad=2.562e-11 ps=2.157e-05 pd=2.29e-05 
+ nrs=0.25 nrd=0.36 
m25 1 19 23 1 penh l=1.1e-06 w=1.56e-05 
+ as=3.285e-11 ad=2.694e-11 ps=3.852e-05 pd=3.57e-05 
+ nrs=0.13 nrd=0.11 
m26 24 7 0 0 nenh l=1.1e-06 w=8e-06 
+ as=1.32e-11 ad=1.709e-11 ps=1.13e-05 pd=2.054e-05 
+ nrs=0.21 nrd=0.27 
m27 0 25 24 0 nenh l=1.1e-06 w=8e-06 
+ as=1.709e-11 ad=1.32e-11 ps=2.054e-05 pd=1.13e-05 
+ nrs=0.27 nrd=0.21 
m28 26 7 24 1 penh l=1.1e-06 w=2.8e-05 
+ as=2.38e-11 ad=4.06e-11 ps=2.97e-05 pd=6.61e-05 
+ nrs=0.03 nrd=0.05 
m29 1 25 26 1 penh l=1.1e-06 w=2.8e-05 
+ as=5.896e-11 ad=2.38e-11 ps=6.913e-05 pd=2.97e-05 
+ nrs=0.08 nrd=0.03 
m30 27 28 0 0 nenh l=1.1e-06 w=8e-06 
+ as=1.32e-11 ad=1.709e-11 ps=1.13e-05 pd=2.054e-05 
+ nrs=0.21 nrd=0.27 
m31 0 7 27 0 nenh l=1.1e-06 w=8e-06 
+ as=1.709e-11 ad=1.32e-11 ps=2.054e-05 pd=1.13e-05 
+ nrs=0.27 nrd=0.21 
m32 29 28 27 1 penh l=1.1e-06 w=2.8e-05 
+ as=2.38e-11 ad=4.06e-11 ps=2.97e-05 pd=6.61e-05 
+ nrs=0.03 nrd=0.05 
m33 1 7 29 1 penh l=1.1e-06 w=2.8e-05 
+ as=5.896e-11 ad=2.38e-11 ps=6.913e-05 pd=2.97e-05 
+ nrs=0.08 nrd=0.03 
m34 0 27 30 0 nenh l=1.1e-06 w=8.4e-06 
+ as=1.794e-11 ad=2.562e-11 ps=2.157e-05 pd=2.29e-05 
+ nrs=0.25 nrd=0.36 
m35 1 27 30 1 penh l=1.1e-06 w=1.56e-05 
+ as=3.285e-11 ad=2.694e-11 ps=3.852e-05 pd=3.57e-05 
+ nrs=0.13 nrd=0.11 
m36 25 31 0 0 nenh l=1.1e-06 w=8e-06 
+ as=1.32e-11 ad=1.709e-11 ps=1.13e-05 pd=2.054e-05 
+ nrs=0.21 nrd=0.27 
m37 0 32 25 0 nenh l=1.1e-06 w=8e-06 
+ as=1.709e-11 ad=1.32e-11 ps=2.054e-05 pd=1.13e-05 
+ nrs=0.27 nrd=0.21 
m38 33 31 25 1 penh l=1.1e-06 w=2.8e-05 
+ as=2.38e-11 ad=4.06e-11 ps=2.97e-05 pd=6.61e-05 
+ nrs=0.03 nrd=0.05 
m39 1 32 33 1 penh l=1.1e-06 w=2.8e-05 
+ as=5.896e-11 ad=2.38e-11 ps=6.913e-05 pd=2.97e-05 
+ nrs=0.08 nrd=0.03 
m40 0 25 34 0 nenh l=1.1e-06 w=8.4e-06 
+ as=1.794e-11 ad=2.562e-11 ps=2.157e-05 pd=2.29e-05 
+ nrs=0.25 nrd=0.36 
m41 1 25 34 1 penh l=1.1e-06 w=1.56e-05 
+ as=3.285e-11 ad=2.694e-11 ps=3.852e-05 pd=3.57e-05 
+ nrs=0.13 nrd=0.11 
m42 35 36 0 0 nenh l=1.1e-06 w=8e-06 
+ as=1.32e-11 ad=1.709e-11 ps=1.13e-05 pd=2.054e-05 
+ nrs=0.21 nrd=0.27 
m43 0 37 35 0 nenh l=1.1e-06 w=8e-06 
+ as=1.709e-11 ad=1.32e-11 ps=2.054e-05 pd=1.13e-05 
+ nrs=0.27 nrd=0.21 
m44 38 36 35 1 penh l=1.1e-06 w=2.8e-05 
+ as=2.38e-11 ad=4.06e-11 ps=2.97e-05 pd=6.61e-05 
+ nrs=0.03 nrd=0.05 
m45 1 37 38 1 penh l=1.1e-06 w=2.8e-05 
+ as=5.896e-11 ad=2.38e-11 ps=6.913e-05 pd=2.97e-05 
+ nrs=0.08 nrd=0.03 
m46 39 40 0 0 nenh l=1.1e-06 w=8e-06 
+ as=1.32e-11 ad=1.709e-11 ps=1.13e-05 pd=2.054e-05 
+ nrs=0.21 nrd=0.27 
m47 0 41 39 0 nenh l=1.1e-06 w=8e-06 
+ as=1.709e-11 ad=1.32e-11 ps=2.054e-05 pd=1.13e-05 
+ nrs=0.27 nrd=0.21 
m48 42 40 39 1 penh l=1.1e-06 w=2.8e-05 
+ as=2.38e-11 ad=4.06e-11 ps=2.97e-05 pd=6.61e-05 
+ nrs=0.03 nrd=0.05 
m49 1 41 42 1 penh l=1.1e-06 w=2.8e-05 
+ as=5.896e-11 ad=2.38e-11 ps=6.913e-05 pd=2.97e-05 
+ nrs=0.08 nrd=0.03 
m50 43 30 44 0 nenh l=1.1e-06 w=1.6e-05 
+ as=1.36e-11 ad=2.24e-11 ps=1.77e-05 pd=3.81e-05 
+ nrs=0.05 nrd=0.09 
m51 0 14 43 0 nenh l=1.1e-06 w=1.6e-05 
+ as=3.417e-11 ad=1.36e-11 ps=4.108e-05 pd=1.77e-05 
+ nrs=0.13 nrd=0.05 
m52 44 30 1 1 penh l=1.1e-06 w=1.4e-05 
+ as=2.31e-11 ad=2.948e-11 ps=1.73e-05 pd=3.457e-05 
+ nrs=0.12 nrd=0.15 
m53 1 14 44 1 penh l=1.1e-06 w=1.4e-05 
+ as=2.948e-11 ad=2.31e-11 ps=3.457e-05 pd=1.73e-05 
+ nrs=0.15 nrd=0.12 
m54 45 16 46 0 nenh l=1.1e-06 w=1.6e-05 
+ as=1.36e-11 ad=2.24e-11 ps=1.77e-05 pd=3.81e-05 
+ nrs=0.05 nrd=0.09 
m55 0 17 45 0 nenh l=1.1e-06 w=1.6e-05 
+ as=3.417e-11 ad=1.36e-11 ps=4.108e-05 pd=1.77e-05 
+ nrs=0.13 nrd=0.05 
m56 46 16 1 1 penh l=1.1e-06 w=1.4e-05 
+ as=2.31e-11 ad=2.948e-11 ps=1.73e-05 pd=3.457e-05 
+ nrs=0.12 nrd=0.15 
m57 1 17 46 1 penh l=1.1e-06 w=1.4e-05 
+ as=2.948e-11 ad=2.31e-11 ps=3.457e-05 pd=1.73e-05 
+ nrs=0.15 nrd=0.12 
m58 47 24 48 0 nenh l=1.1e-06 w=1.6e-05 
+ as=1.36e-11 ad=2.24e-11 ps=1.77e-05 pd=3.81e-05 
+ nrs=0.05 nrd=0.09 
m59 0 23 47 0 nenh l=1.1e-06 w=1.6e-05 
+ as=3.417e-11 ad=1.36e-11 ps=4.108e-05 pd=1.77e-05 
+ nrs=0.13 nrd=0.05 
m60 48 24 1 1 penh l=1.1e-06 w=1.4e-05 
+ as=2.31e-11 ad=2.948e-11 ps=1.73e-05 pd=3.457e-05 
+ nrs=0.12 nrd=0.15 
m61 1 23 48 1 penh l=1.1e-06 w=1.4e-05 
+ as=2.948e-11 ad=2.31e-11 ps=3.457e-05 pd=1.73e-05 
+ nrs=0.15 nrd=0.12 
m62 49 20 50 0 nenh l=1.1e-06 w=1.6e-05 
+ as=1.36e-11 ad=2.24e-11 ps=1.77e-05 pd=3.81e-05 
+ nrs=0.05 nrd=0.09 
m63 0 21 49 0 nenh l=1.1e-06 w=1.6e-05 
+ as=3.417e-11 ad=1.36e-11 ps=4.108e-05 pd=1.77e-05 
+ nrs=0.13 nrd=0.05 
m64 50 20 1 1 penh l=1.1e-06 w=1.4e-05 
+ as=2.31e-11 ad=2.948e-11 ps=1.73e-05 pd=3.457e-05 
+ nrs=0.12 nrd=0.15 
m65 1 21 50 1 penh l=1.1e-06 w=1.4e-05 
+ as=2.948e-11 ad=2.31e-11 ps=3.457e-05 pd=1.73e-05 
+ nrs=0.15 nrd=0.12 
m66 51 31 28 0 nenh l=1.1e-06 w=1.6e-05 
+ as=1.36e-11 ad=2.24e-11 ps=1.77e-05 pd=3.81e-05 
+ nrs=0.05 nrd=0.09 
m67 0 32 51 0 nenh l=1.1e-06 w=1.6e-05 
+ as=3.417e-11 ad=1.36e-11 ps=4.108e-05 pd=1.77e-05 
+ nrs=0.13 nrd=0.05 
m68 28 31 1 1 penh l=1.1e-06 w=1.4e-05 
+ as=2.31e-11 ad=2.948e-11 ps=1.73e-05 pd=3.457e-05 
+ nrs=0.12 nrd=0.15 
m69 1 32 28 1 penh l=1.1e-06 w=1.4e-05 
+ as=2.948e-11 ad=2.31e-11 ps=3.457e-05 pd=1.73e-05 
+ nrs=0.15 nrd=0.12 
m70 52 36 53 0 nenh l=1.1e-06 w=1.6e-05 
+ as=1.36e-11 ad=2.24e-11 ps=1.77e-05 pd=3.81e-05 
+ nrs=0.05 nrd=0.09 
m71 0 37 52 0 nenh l=1.1e-06 w=1.6e-05 
+ as=3.417e-11 ad=1.36e-11 ps=4.108e-05 pd=1.77e-05 
+ nrs=0.13 nrd=0.05 
m72 53 36 1 1 penh l=1.1e-06 w=1.4e-05 
+ as=2.31e-11 ad=2.948e-11 ps=1.73e-05 pd=3.457e-05 
+ nrs=0.12 nrd=0.15 
m73 1 37 53 1 penh l=1.1e-06 w=1.4e-05 
+ as=2.948e-11 ad=2.31e-11 ps=3.457e-05 pd=1.73e-05 
+ nrs=0.15 nrd=0.12 
m74 54 40 55 0 nenh l=1.1e-06 w=1.6e-05 
+ as=1.36e-11 ad=2.24e-11 ps=1.77e-05 pd=3.81e-05 
+ nrs=0.05 nrd=0.09 
m75 0 41 54 0 nenh l=1.1e-06 w=1.6e-05 
+ as=3.417e-11 ad=1.36e-11 ps=4.108e-05 pd=1.77e-05 
+ nrs=0.13 nrd=0.05 
m76 55 40 1 1 penh l=1.1e-06 w=1.4e-05 
+ as=2.31e-11 ad=2.948e-11 ps=1.73e-05 pd=3.457e-05 
+ nrs=0.12 nrd=0.15 
m77 1 41 55 1 penh l=1.1e-06 w=1.4e-05 
+ as=2.948e-11 ad=2.31e-11 ps=3.457e-05 pd=1.73e-05 
+ nrs=0.15 nrd=0.12 
m78 56 46 57 0 nenh l=1.1e-06 w=1.6e-05 
+ as=2.507e-11 ad=2.8e-11 ps=2.557e-05 pd=3.81e-05 
+ nrs=0.1 nrd=0.11 
m79 0 58 56 0 nenh l=1.1e-06 w=1.6e-05 
+ as=3.417e-11 ad=2.507e-11 ps=4.108e-05 pd=2.557e-05 
+ nrs=0.13 nrd=0.1 
m80 56 15 0 0 nenh l=1.1e-06 w=1.6e-05 
+ as=2.507e-11 ad=3.417e-11 ps=2.557e-05 pd=4.108e-05 
+ nrs=0.1 nrd=0.13 
m81 57 46 1 1 penh l=1.1e-06 w=2.8e-05 
+ as=4.62e-11 ad=5.896e-11 ps=3.13e-05 pd=6.913e-05 
+ nrs=0.06 nrd=0.08 
m82 59 58 57 1 penh l=1.1e-06 w=2.8e-05 
+ as=4.62e-11 ad=4.62e-11 ps=3.13e-05 pd=3.13e-05 
+ nrs=0.06 nrd=0.06 
m83 1 15 59 1 penh l=1.1e-06 w=2.8e-05 
+ as=5.896e-11 ad=4.62e-11 ps=6.913e-05 pd=3.13e-05 
+ nrs=0.08 nrd=0.06 
m84 0 15 60 0 nenh l=1.1e-06 w=8.4e-06 
+ as=1.794e-11 ad=2.562e-11 ps=2.157e-05 pd=2.29e-05 
+ nrs=0.25 nrd=0.36 
m85 1 15 60 1 penh l=1.1e-06 w=1.56e-05 
+ as=3.285e-11 ad=2.694e-11 ps=3.852e-05 pd=3.57e-05 
+ nrs=0.13 nrd=0.11 
m86 58 61 0 0 nenh l=1.1e-06 w=8e-06 
+ as=1.32e-11 ad=1.709e-11 ps=1.13e-05 pd=2.054e-05 
+ nrs=0.21 nrd=0.27 
m87 0 62 58 0 nenh l=1.1e-06 w=8e-06 
+ as=1.709e-11 ad=1.32e-11 ps=2.054e-05 pd=1.13e-05 
+ nrs=0.27 nrd=0.21 
m88 63 61 58 1 penh l=1.1e-06 w=2.8e-05 
+ as=2.38e-11 ad=4.06e-11 ps=2.97e-05 pd=6.61e-05 
+ nrs=0.03 nrd=0.05 
m89 1 62 63 1 penh l=1.1e-06 w=2.8e-05 
+ as=5.896e-11 ad=2.38e-11 ps=6.913e-05 pd=2.97e-05 
+ nrs=0.08 nrd=0.03 
m90 0 58 64 0 nenh l=1.1e-06 w=8.4e-06 
+ as=1.794e-11 ad=2.562e-11 ps=2.157e-05 pd=2.29e-05 
+ nrs=0.25 nrd=0.36 
m91 1 58 64 1 penh l=1.1e-06 w=1.56e-05 
+ as=3.285e-11 ad=2.694e-11 ps=3.852e-05 pd=3.57e-05 
+ nrs=0.13 nrd=0.11 
m92 65 53 0 0 nenh l=1.1e-06 w=8e-06 
+ as=1.32e-11 ad=1.709e-11 ps=1.13e-05 pd=2.054e-05 
+ nrs=0.21 nrd=0.27 
m93 0 39 65 0 nenh l=1.1e-06 w=8e-06 
+ as=1.709e-11 ad=1.32e-11 ps=2.054e-05 pd=1.13e-05 
+ nrs=0.27 nrd=0.21 
m94 66 53 65 1 penh l=1.1e-06 w=2.8e-05 
+ as=2.38e-11 ad=4.06e-11 ps=2.97e-05 pd=6.61e-05 
+ nrs=0.03 nrd=0.05 
m95 1 39 66 1 penh l=1.1e-06 w=2.8e-05 
+ as=5.896e-11 ad=2.38e-11 ps=6.913e-05 pd=2.97e-05 
+ nrs=0.08 nrd=0.03 
m96 0 55 67 0 nenh l=1.1e-06 w=8.4e-06 
+ as=1.794e-11 ad=2.562e-11 ps=2.157e-05 pd=2.29e-05 
+ nrs=0.25 nrd=0.36 
m97 1 55 67 1 penh l=1.1e-06 w=1.56e-05 
+ as=3.285e-11 ad=2.694e-11 ps=3.852e-05 pd=3.57e-05 
+ nrs=0.13 nrd=0.11 
m98 68 67 0 0 nenh l=1.1e-06 w=8e-06 
+ as=1.32e-11 ad=1.709e-11 ps=1.13e-05 pd=2.054e-05 
+ nrs=0.21 nrd=0.27 
m99 0 39 68 0 nenh l=1.1e-06 w=8e-06 
+ as=1.709e-11 ad=1.32e-11 ps=2.054e-05 pd=1.13e-05 
+ nrs=0.27 nrd=0.21 
m100 69 67 68 1 penh l=1.1e-06 w=2.8e-05 
+ as=2.38e-11 ad=4.06e-11 ps=2.97e-05 pd=6.61e-05 
+ nrs=0.03 nrd=0.05 
m101 1 39 69 1 penh l=1.1e-06 w=2.8e-05 
+ as=5.896e-11 ad=2.38e-11 ps=6.913e-05 pd=2.97e-05 
+ nrs=0.08 nrd=0.03 
m102 70 71 0 0 nenh l=1.1e-06 w=8e-06 
+ as=1.32e-11 ad=1.709e-11 ps=1.13e-05 pd=2.054e-05 
+ nrs=0.21 nrd=0.27 
m103 0 72 70 0 nenh l=1.1e-06 w=8e-06 
+ as=1.709e-11 ad=1.32e-11 ps=2.054e-05 pd=1.13e-05 
+ nrs=0.27 nrd=0.21 
m104 73 71 70 1 penh l=1.1e-06 w=2.8e-05 
+ as=2.38e-11 ad=4.06e-11 ps=2.97e-05 pd=6.61e-05 
+ nrs=0.03 nrd=0.05 
m105 1 72 73 1 penh l=1.1e-06 w=2.8e-05 
+ as=5.896e-11 ad=2.38e-11 ps=6.913e-05 pd=2.97e-05 
+ nrs=0.08 nrd=0.03 
m106 74 46 75 0 nenh l=1.1e-06 w=1.6e-05 
+ as=1.36e-11 ad=2.24e-11 ps=1.77e-05 pd=3.81e-05 
+ nrs=0.05 nrd=0.09 
m107 0 60 74 0 nenh l=1.1e-06 w=1.6e-05 
+ as=3.417e-11 ad=1.36e-11 ps=4.108e-05 pd=1.77e-05 
+ nrs=0.13 nrd=0.05 
m108 75 46 1 1 penh l=1.1e-06 w=1.4e-05 
+ as=2.31e-11 ad=2.948e-11 ps=1.73e-05 pd=3.457e-05 
+ nrs=0.12 nrd=0.15 
m109 1 60 75 1 penh l=1.1e-06 w=1.4e-05 
+ as=2.948e-11 ad=2.31e-11 ps=3.457e-05 pd=1.73e-05 
+ nrs=0.15 nrd=0.12 
m110 0 39 76 0 nenh l=1.1e-06 w=1.6e-05 
+ as=3.417e-11 ad=3.008e-11 ps=4.108e-05 pd=3.81e-05 
+ nrs=0.13 nrd=0.12 
m111 77 78 0 0 nenh l=1.1e-06 w=1.6e-05 
+ as=1.36e-11 ad=3.417e-11 ps=1.77e-05 pd=4.108e-05 
+ nrs=0.05 nrd=0.13 
m112 76 55 77 0 nenh l=1.1e-06 w=1.6e-05 
+ as=3.008e-11 ad=1.36e-11 ps=3.81e-05 pd=1.77e-05 
+ nrs=0.12 nrd=0.05 
m113 79 39 76 1 penh l=1.1e-06 w=2.8e-05 
+ as=4.62e-11 ad=3.5e-11 ps=4.183e-05 pd=6.21e-05 
+ nrs=0.06 nrd=0.04 
m114 1 78 79 1 penh l=1.1e-06 w=2.8e-05 
+ as=5.896e-11 ad=4.62e-11 ps=6.913e-05 pd=4.183e-05 
+ nrs=0.08 nrd=0.06 
m115 79 55 1 1 penh l=1.1e-06 w=2.8e-05 
+ as=4.62e-11 ad=5.896e-11 ps=4.183e-05 pd=6.913e-05 
+ nrs=0.06 nrd=0.08 
m116 80 81 61 0 nenh l=1.1e-06 w=1.6e-05 
+ as=1.36e-11 ad=2.24e-11 ps=1.77e-05 pd=3.81e-05 
+ nrs=0.05 nrd=0.09 
m117 0 55 80 0 nenh l=1.1e-06 w=1.6e-05 
+ as=3.417e-11 ad=1.36e-11 ps=4.108e-05 pd=1.77e-05 
+ nrs=0.13 nrd=0.05 
m118 61 81 1 1 penh l=1.1e-06 w=1.4e-05 
+ as=2.31e-11 ad=2.948e-11 ps=1.73e-05 pd=3.457e-05 
+ nrs=0.12 nrd=0.15 
m119 1 55 61 1 penh l=1.1e-06 w=1.4e-05 
+ as=2.948e-11 ad=2.31e-11 ps=3.457e-05 pd=1.73e-05 
+ nrs=0.15 nrd=0.12 
m120 82 71 83 0 nenh l=1.1e-06 w=1.6e-05 
+ as=1.36e-11 ad=2.24e-11 ps=1.77e-05 pd=3.81e-05 
+ nrs=0.05 nrd=0.09 
m121 0 72 82 0 nenh l=1.1e-06 w=1.6e-05 
+ as=3.417e-11 ad=1.36e-11 ps=4.108e-05 pd=1.77e-05 
+ nrs=0.13 nrd=0.05 
m122 83 71 1 1 penh l=1.1e-06 w=1.4e-05 
+ as=2.31e-11 ad=2.948e-11 ps=1.73e-05 pd=3.457e-05 
+ nrs=0.12 nrd=0.15 
m123 1 72 83 1 penh l=1.1e-06 w=1.4e-05 
+ as=2.948e-11 ad=2.31e-11 ps=3.457e-05 pd=1.73e-05 
+ nrs=0.15 nrd=0.12 
m124 84 85 78 0 nenh l=1.1e-06 w=1.6e-05 
+ as=2.507e-11 ad=2.8e-11 ps=2.557e-05 pd=3.81e-05 
+ nrs=0.1 nrd=0.11 
m125 0 86 84 0 nenh l=1.1e-06 w=1.6e-05 
+ as=3.417e-11 ad=2.507e-11 ps=4.108e-05 pd=2.557e-05 
+ nrs=0.13 nrd=0.1 
m126 84 87 0 0 nenh l=1.1e-06 w=1.6e-05 
+ as=2.507e-11 ad=3.417e-11 ps=2.557e-05 pd=4.108e-05 
+ nrs=0.1 nrd=0.13 
m127 78 85 1 1 penh l=1.1e-06 w=2.8e-05 
+ as=4.62e-11 ad=5.896e-11 ps=3.13e-05 pd=6.913e-05 
+ nrs=0.06 nrd=0.08 
m128 88 86 78 1 penh l=1.1e-06 w=2.8e-05 
+ as=4.62e-11 ad=4.62e-11 ps=3.13e-05 pd=3.13e-05 
+ nrs=0.06 nrd=0.06 
m129 1 87 88 1 penh l=1.1e-06 w=2.8e-05 
+ as=5.896e-11 ad=4.62e-11 ps=6.913e-05 pd=3.13e-05 
+ nrs=0.08 nrd=0.06 
m130 0 90 89 0 nenh l=1.1e-06 w=1.6e-05 
+ as=3.417e-11 ad=3.008e-11 ps=4.108e-05 pd=3.81e-05 
+ nrs=0.13 nrd=0.12 
m131 91 78 0 0 nenh l=1.1e-06 w=1.6e-05 
+ as=1.36e-11 ad=3.417e-11 ps=1.77e-05 pd=4.108e-05 
+ nrs=0.05 nrd=0.13 
m132 89 68 91 0 nenh l=1.1e-06 w=1.6e-05 
+ as=3.008e-11 ad=1.36e-11 ps=3.81e-05 pd=1.77e-05 
+ nrs=0.12 nrd=0.05 
m133 92 90 89 1 penh l=1.1e-06 w=2.8e-05 
+ as=4.62e-11 ad=3.5e-11 ps=4.183e-05 pd=6.21e-05 
+ nrs=0.06 nrd=0.04 
m134 1 78 92 1 penh l=1.1e-06 w=2.8e-05 
+ as=5.896e-11 ad=4.62e-11 ps=6.913e-05 pd=4.183e-05 
+ nrs=0.08 nrd=0.06 
m135 92 68 1 1 penh l=1.1e-06 w=2.8e-05 
+ as=4.62e-11 ad=5.896e-11 ps=4.183e-05 pd=6.913e-05 
+ nrs=0.06 nrd=0.08 
m136 0 68 90 0 nenh l=1.1e-06 w=1.6e-05 
+ as=3.417e-11 ad=3.008e-11 ps=4.108e-05 pd=3.81e-05 
+ nrs=0.13 nrd=0.12 
m137 93 94 0 0 nenh l=1.1e-06 w=1.6e-05 
+ as=1.36e-11 ad=3.417e-11 ps=1.77e-05 pd=4.108e-05 
+ nrs=0.05 nrd=0.13 
m138 90 53 93 0 nenh l=1.1e-06 w=1.6e-05 
+ as=3.008e-11 ad=1.36e-11 ps=3.81e-05 pd=1.77e-05 
+ nrs=0.12 nrd=0.05 
m139 95 68 90 1 penh l=1.1e-06 w=2.8e-05 
+ as=4.62e-11 ad=3.5e-11 ps=4.183e-05 pd=6.21e-05 
+ nrs=0.06 nrd=0.04 
m140 1 94 95 1 penh l=1.1e-06 w=2.8e-05 
+ as=5.896e-11 ad=4.62e-11 ps=6.913e-05 pd=4.183e-05 
+ nrs=0.08 nrd=0.06 
m141 95 53 1 1 penh l=1.1e-06 w=2.8e-05 
+ as=4.62e-11 ad=5.896e-11 ps=4.183e-05 pd=6.913e-05 
+ nrs=0.06 nrd=0.08 
m142 0 89 96 0 nenh l=1.1e-06 w=8.4e-06 
+ as=1.794e-11 ad=2.562e-11 ps=2.157e-05 pd=2.29e-05 
+ nrs=0.25 nrd=0.36 
m143 1 89 96 1 penh l=1.1e-06 w=1.56e-05 
+ as=3.285e-11 ad=2.694e-11 ps=3.852e-05 pd=3.57e-05 
+ nrs=0.13 nrd=0.11 
m144 0 53 87 0 nenh l=1.1e-06 w=8.4e-06 
+ as=1.794e-11 ad=2.562e-11 ps=2.157e-05 pd=2.29e-05 
+ nrs=0.25 nrd=0.36 
m145 1 53 87 1 penh l=1.1e-06 w=1.56e-05 
+ as=3.285e-11 ad=2.694e-11 ps=3.852e-05 pd=3.57e-05 
+ nrs=0.13 nrd=0.11 
m146 97 98 94 0 nenh l=1.1e-06 w=1.6e-05 
+ as=1.36e-11 ad=2.24e-11 ps=1.77e-05 pd=3.81e-05 
+ nrs=0.05 nrd=0.09 
m147 0 85 97 0 nenh l=1.1e-06 w=1.6e-05 
+ as=3.417e-11 ad=1.36e-11 ps=4.108e-05 pd=1.77e-05 
+ nrs=0.13 nrd=0.05 
m148 94 98 1 1 penh l=1.1e-06 w=1.4e-05 
+ as=2.31e-11 ad=2.948e-11 ps=1.73e-05 pd=3.457e-05 
+ nrs=0.12 nrd=0.15 
m149 1 85 94 1 penh l=1.1e-06 w=1.4e-05 
+ as=2.948e-11 ad=2.31e-11 ps=3.457e-05 pd=1.73e-05 
+ nrs=0.15 nrd=0.12 
m150 99 53 100 0 nenh l=1.1e-06 w=1.6e-05 
+ as=1.36e-11 ad=2.24e-11 ps=1.77e-05 pd=3.81e-05 
+ nrs=0.05 nrd=0.09 
m151 0 85 99 0 nenh l=1.1e-06 w=1.6e-05 
+ as=3.417e-11 ad=1.36e-11 ps=4.108e-05 pd=1.77e-05 
+ nrs=0.13 nrd=0.05 
m152 100 53 1 1 penh l=1.1e-06 w=1.4e-05 
+ as=2.31e-11 ad=2.948e-11 ps=1.73e-05 pd=3.457e-05 
+ nrs=0.12 nrd=0.15 
m153 1 85 100 1 penh l=1.1e-06 w=1.4e-05 
+ as=2.948e-11 ad=2.31e-11 ps=3.457e-05 pd=1.73e-05 
+ nrs=0.15 nrd=0.12 
m154 101 44 0 0 nenh l=1.1e-06 w=8e-06 
+ as=1.32e-11 ad=1.788e-11 ps=1.13e-05 pd=1.959e-05 
+ nrs=0.21 nrd=0.28 
m155 0 102 101 0 nenh l=1.1e-06 w=8e-06 
+ as=1.788e-11 ad=1.32e-11 ps=1.959e-05 pd=1.13e-05 
+ nrs=0.28 nrd=0.21 
m156 103 44 101 1 penh l=1.1e-06 w=2.8e-05 
+ as=2.38e-11 ad=4.06e-11 ps=2.97e-05 pd=6.61e-05 
+ nrs=0.03 nrd=0.05 
m157 1 102 103 1 penh l=1.1e-06 w=2.8e-05 
+ as=6.054e-11 ad=2.38e-11 ps=6.96e-05 pd=2.97e-05 
+ nrs=0.08 nrd=0.03 
m158 0 104 102 0 nenh l=1.1e-06 w=8.4e-06 
+ as=1.877e-11 ad=2.562e-11 ps=2.057e-05 pd=2.29e-05 
+ nrs=0.27 nrd=0.36 
m159 1 104 102 1 penh l=1.1e-06 w=1.56e-05 
+ as=3.373e-11 ad=2.694e-11 ps=3.878e-05 pd=3.57e-05 
+ nrs=0.14 nrd=0.11 
m160 0 3 105 0 nenh l=1.1e-06 w=8.4e-06 
+ as=1.877e-11 ad=2.562e-11 ps=2.057e-05 pd=2.29e-05 
+ nrs=0.27 nrd=0.36 
m161 1 3 105 1 penh l=1.1e-06 w=1.56e-05 
+ as=3.373e-11 ad=2.694e-11 ps=3.878e-05 pd=3.57e-05 
+ nrs=0.14 nrd=0.11 
m162 0 14 106 0 nenh l=1.1e-06 w=8.4e-06 
+ as=1.877e-11 ad=2.562e-11 ps=2.057e-05 pd=2.29e-05 
+ nrs=0.27 nrd=0.36 
m163 1 14 106 1 penh l=1.1e-06 w=1.56e-05 
+ as=3.373e-11 ad=2.694e-11 ps=3.878e-05 pd=3.57e-05 
+ nrs=0.14 nrd=0.11 
m164 107 106 0 0 nenh l=1.1e-06 w=8e-06 
+ as=1.32e-11 ad=1.788e-11 ps=1.13e-05 pd=1.959e-05 
+ nrs=0.21 nrd=0.28 
m165 0 7 107 0 nenh l=1.1e-06 w=8e-06 
+ as=1.788e-11 ad=1.32e-11 ps=1.959e-05 pd=1.13e-05 
+ nrs=0.28 nrd=0.21 
m166 108 106 107 1 penh l=1.1e-06 w=2.8e-05 
+ as=2.38e-11 ad=4.06e-11 ps=2.97e-05 pd=6.61e-05 
+ nrs=0.03 nrd=0.05 
m167 1 7 108 1 penh l=1.1e-06 w=2.8e-05 
+ as=6.054e-11 ad=2.38e-11 ps=6.96e-05 pd=2.97e-05 
+ nrs=0.08 nrd=0.03 
m168 109 110 0 0 nenh l=1.1e-06 w=8e-06 
+ as=1.32e-11 ad=1.788e-11 ps=1.13e-05 pd=1.959e-05 
+ nrs=0.21 nrd=0.28 
m169 0 111 109 0 nenh l=1.1e-06 w=8e-06 
+ as=1.788e-11 ad=1.32e-11 ps=1.959e-05 pd=1.13e-05 
+ nrs=0.28 nrd=0.21 
m170 112 110 109 1 penh l=1.1e-06 w=2.8e-05 
+ as=2.38e-11 ad=4.06e-11 ps=2.97e-05 pd=6.61e-05 
+ nrs=0.03 nrd=0.05 
m171 1 111 112 1 penh l=1.1e-06 w=2.8e-05 
+ as=6.054e-11 ad=2.38e-11 ps=6.96e-05 pd=2.97e-05 
+ nrs=0.08 nrd=0.03 
m172 0 114 113 0 nenh l=1.1e-06 w=8.4e-06 
+ as=1.877e-11 ad=2.562e-11 ps=2.057e-05 pd=2.29e-05 
+ nrs=0.27 nrd=0.36 
m173 1 114 113 1 penh l=1.1e-06 w=1.56e-05 
+ as=3.373e-11 ad=2.694e-11 ps=3.878e-05 pd=3.57e-05 
+ nrs=0.14 nrd=0.11 
m174 115 116 0 0 nenh l=1.1e-06 w=8e-06 
+ as=1.32e-11 ad=1.788e-11 ps=1.13e-05 pd=1.959e-05 
+ nrs=0.21 nrd=0.28 
m175 0 19 115 0 nenh l=1.1e-06 w=8e-06 
+ as=1.788e-11 ad=1.32e-11 ps=1.959e-05 pd=1.13e-05 
+ nrs=0.28 nrd=0.21 
m176 117 116 115 1 penh l=1.1e-06 w=2.8e-05 
+ as=2.38e-11 ad=4.06e-11 ps=2.97e-05 pd=6.61e-05 
+ nrs=0.03 nrd=0.05 
m177 1 19 117 1 penh l=1.1e-06 w=2.8e-05 
+ as=6.054e-11 ad=2.38e-11 ps=6.96e-05 pd=2.97e-05 
+ nrs=0.08 nrd=0.03 
m178 0 50 116 0 nenh l=1.1e-06 w=8.4e-06 
+ as=1.877e-11 ad=2.562e-11 ps=2.057e-05 pd=2.29e-05 
+ nrs=0.27 nrd=0.36 
m179 1 50 116 1 penh l=1.1e-06 w=1.56e-05 
+ as=3.373e-11 ad=2.694e-11 ps=3.878e-05 pd=3.57e-05 
+ nrs=0.14 nrd=0.11 
m180 118 24 104 0 nenh l=1.1e-06 w=1.6e-05 
+ as=1.36e-11 ad=2.24e-11 ps=1.77e-05 pd=3.81e-05 
+ nrs=0.05 nrd=0.09 
m181 0 116 118 0 nenh l=1.1e-06 w=1.6e-05 
+ as=3.575e-11 ad=1.36e-11 ps=3.918e-05 pd=1.77e-05 
+ nrs=0.14 nrd=0.05 
m182 104 24 1 1 penh l=1.1e-06 w=1.4e-05 
+ as=2.31e-11 ad=3.027e-11 ps=1.73e-05 pd=3.48e-05 
+ nrs=0.12 nrd=0.15 
m183 1 116 104 1 penh l=1.1e-06 w=1.4e-05 
+ as=3.027e-11 ad=2.31e-11 ps=3.48e-05 pd=1.73e-05 
+ nrs=0.15 nrd=0.12 
m184 0 7 119 0 nenh l=1.1e-06 w=1.6e-05 
+ as=3.575e-11 ad=3.008e-11 ps=3.918e-05 pd=3.81e-05 
+ nrs=0.14 nrd=0.12 
m185 120 121 0 0 nenh l=1.1e-06 w=1.6e-05 
+ as=1.36e-11 ad=3.575e-11 ps=1.77e-05 pd=3.918e-05 
+ nrs=0.05 nrd=0.14 
m186 119 14 120 0 nenh l=1.1e-06 w=1.6e-05 
+ as=3.008e-11 ad=1.36e-11 ps=3.81e-05 pd=1.77e-05 
+ nrs=0.12 nrd=0.05 
m187 122 7 119 1 penh l=1.1e-06 w=2.8e-05 
+ as=4.62e-11 ad=3.5e-11 ps=4.183e-05 pd=6.21e-05 
+ nrs=0.06 nrd=0.04 
m188 1 121 122 1 penh l=1.1e-06 w=2.8e-05 
+ as=6.054e-11 ad=4.62e-11 ps=6.96e-05 pd=4.183e-05 
+ nrs=0.08 nrd=0.06 
m189 122 14 1 1 penh l=1.1e-06 w=2.8e-05 
+ as=4.62e-11 ad=6.054e-11 ps=4.183e-05 pd=6.96e-05 
+ nrs=0.06 nrd=0.08 
m190 123 110 114 0 nenh l=1.1e-06 w=1.6e-05 
+ as=1.36e-11 ad=2.24e-11 ps=1.77e-05 pd=3.81e-05 
+ nrs=0.05 nrd=0.09 
m191 0 111 123 0 nenh l=1.1e-06 w=1.6e-05 
+ as=3.575e-11 ad=1.36e-11 ps=3.918e-05 pd=1.77e-05 
+ nrs=0.14 nrd=0.05 
m192 114 110 1 1 penh l=1.1e-06 w=1.4e-05 
+ as=2.31e-11 ad=3.027e-11 ps=1.73e-05 pd=3.48e-05 
+ nrs=0.12 nrd=0.15 
m193 1 111 114 1 penh l=1.1e-06 w=1.4e-05 
+ as=3.027e-11 ad=2.31e-11 ps=3.48e-05 pd=1.73e-05 
+ nrs=0.15 nrd=0.12 
m194 0 125 124 0 nenh l=1.1e-06 w=1.6e-05 
+ as=3.575e-11 ad=3.008e-11 ps=3.918e-05 pd=3.81e-05 
+ nrs=0.14 nrd=0.12 
m195 126 121 0 0 nenh l=1.1e-06 w=1.6e-05 
+ as=1.36e-11 ad=3.575e-11 ps=1.77e-05 pd=3.918e-05 
+ nrs=0.05 nrd=0.14 
m196 124 107 126 0 nenh l=1.1e-06 w=1.6e-05 
+ as=3.008e-11 ad=1.36e-11 ps=3.81e-05 pd=1.77e-05 
+ nrs=0.12 nrd=0.05 
m197 127 125 124 1 penh l=1.1e-06 w=2.8e-05 
+ as=4.62e-11 ad=3.5e-11 ps=4.183e-05 pd=6.21e-05 
+ nrs=0.06 nrd=0.04 
m198 1 121 127 1 penh l=1.1e-06 w=2.8e-05 
+ as=6.054e-11 ad=4.62e-11 ps=6.96e-05 pd=4.183e-05 
+ nrs=0.08 nrd=0.06 
m199 127 107 1 1 penh l=1.1e-06 w=2.8e-05 
+ as=4.62e-11 ad=6.054e-11 ps=4.183e-05 pd=6.96e-05 
+ nrs=0.06 nrd=0.08 
m200 0 107 125 0 nenh l=1.1e-06 w=1.6e-05 
+ as=3.575e-11 ad=3.008e-11 ps=3.918e-05 pd=3.81e-05 
+ nrs=0.14 nrd=0.12 
m201 128 129 0 0 nenh l=1.1e-06 w=1.6e-05 
+ as=1.36e-11 ad=3.575e-11 ps=1.77e-05 pd=3.918e-05 
+ nrs=0.05 nrd=0.14 
m202 125 28 128 0 nenh l=1.1e-06 w=1.6e-05 
+ as=3.008e-11 ad=1.36e-11 ps=3.81e-05 pd=1.77e-05 
+ nrs=0.12 nrd=0.05 
m203 130 107 125 1 penh l=1.1e-06 w=2.8e-05 
+ as=4.62e-11 ad=3.5e-11 ps=4.183e-05 pd=6.21e-05 
+ nrs=0.06 nrd=0.04 
m204 1 129 130 1 penh l=1.1e-06 w=2.8e-05 
+ as=6.054e-11 ad=4.62e-11 ps=6.96e-05 pd=4.183e-05 
+ nrs=0.08 nrd=0.06 
m205 130 28 1 1 penh l=1.1e-06 w=2.8e-05 
+ as=4.62e-11 ad=6.054e-11 ps=4.183e-05 pd=6.96e-05 
+ nrs=0.06 nrd=0.08 
m206 131 132 129 0 nenh l=1.1e-06 w=1.6e-05 
+ as=1.36e-11 ad=2.24e-11 ps=1.77e-05 pd=3.81e-05 
+ nrs=0.05 nrd=0.09 
m207 0 34 131 0 nenh l=1.1e-06 w=1.6e-05 
+ as=3.575e-11 ad=1.36e-11 ps=3.918e-05 pd=1.77e-05 
+ nrs=0.14 nrd=0.05 
m208 129 132 1 1 penh l=1.1e-06 w=1.4e-05 
+ as=2.31e-11 ad=3.027e-11 ps=1.73e-05 pd=3.48e-05 
+ nrs=0.12 nrd=0.15 
m209 1 34 129 1 penh l=1.1e-06 w=1.4e-05 
+ as=3.027e-11 ad=2.31e-11 ps=3.48e-05 pd=1.73e-05 
+ nrs=0.15 nrd=0.12 
m210 0 28 133 0 nenh l=1.1e-06 w=8.4e-06 
+ as=1.877e-11 ad=2.562e-11 ps=2.057e-05 pd=2.29e-05 
+ nrs=0.27 nrd=0.36 
m211 1 28 133 1 penh l=1.1e-06 w=1.56e-05 
+ as=3.373e-11 ad=2.694e-11 ps=3.878e-05 pd=3.57e-05 
+ nrs=0.14 nrd=0.11 
m212 134 28 135 0 nenh l=1.1e-06 w=1.6e-05 
+ as=1.36e-11 ad=2.24e-11 ps=1.77e-05 pd=3.81e-05 
+ nrs=0.05 nrd=0.09 
m213 0 34 134 0 nenh l=1.1e-06 w=1.6e-05 
+ as=3.575e-11 ad=1.36e-11 ps=3.918e-05 pd=1.77e-05 
+ nrs=0.14 nrd=0.05 
m214 135 28 1 1 penh l=1.1e-06 w=1.4e-05 
+ as=2.31e-11 ad=3.027e-11 ps=1.73e-05 pd=3.48e-05 
+ nrs=0.12 nrd=0.15 
m215 1 34 135 1 penh l=1.1e-06 w=1.4e-05 
+ as=3.027e-11 ad=2.31e-11 ps=3.48e-05 pd=1.73e-05 
+ nrs=0.15 nrd=0.12 
m216 136 34 121 0 nenh l=1.1e-06 w=1.6e-05 
+ as=2.507e-11 ad=2.8e-11 ps=2.557e-05 pd=3.81e-05 
+ nrs=0.1 nrd=0.11 
m217 0 137 136 0 nenh l=1.1e-06 w=1.6e-05 
+ as=3.575e-11 ad=2.507e-11 ps=3.918e-05 pd=2.557e-05 
+ nrs=0.14 nrd=0.1 
m218 136 133 0 0 nenh l=1.1e-06 w=1.6e-05 
+ as=2.507e-11 ad=3.575e-11 ps=2.557e-05 pd=3.918e-05 
+ nrs=0.1 nrd=0.14 
m219 121 34 1 1 penh l=1.1e-06 w=2.8e-05 
+ as=4.62e-11 ad=6.054e-11 ps=3.13e-05 pd=6.96e-05 
+ nrs=0.06 nrd=0.08 
m220 138 137 121 1 penh l=1.1e-06 w=2.8e-05 
+ as=4.62e-11 ad=4.62e-11 ps=3.13e-05 pd=3.13e-05 
+ nrs=0.06 nrd=0.06 
m221 1 133 138 1 penh l=1.1e-06 w=2.8e-05 
+ as=6.054e-11 ad=4.62e-11 ps=6.96e-05 pd=3.13e-05 
+ nrs=0.08 nrd=0.06 
m222 0 109 139 0 nenh l=1.1e-06 w=8.4e-06 
+ as=1.877e-11 ad=2.562e-11 ps=2.057e-05 pd=2.29e-05 
+ nrs=0.27 nrd=0.36 
m223 1 109 139 1 penh l=1.1e-06 w=1.56e-05 
+ as=3.373e-11 ad=2.694e-11 ps=3.878e-05 pd=3.57e-05 
+ nrs=0.14 nrd=0.11 
m224 140 39 0 0 nenh l=1.1e-06 w=8e-06 
+ as=1.32e-11 ad=1.788e-11 ps=1.13e-05 pd=1.959e-05 
+ nrs=0.21 nrd=0.28 
m225 0 35 140 0 nenh l=1.1e-06 w=8e-06 
+ as=1.788e-11 ad=1.32e-11 ps=1.959e-05 pd=1.13e-05 
+ nrs=0.28 nrd=0.21 
m226 141 39 140 1 penh l=1.1e-06 w=2.8e-05 
+ as=2.38e-11 ad=4.06e-11 ps=2.97e-05 pd=6.61e-05 
+ nrs=0.03 nrd=0.05 
m227 1 35 141 1 penh l=1.1e-06 w=2.8e-05 
+ as=6.054e-11 ad=2.38e-11 ps=6.96e-05 pd=2.97e-05 
+ nrs=0.08 nrd=0.03 
m228 0 142 62 0 nenh l=1.1e-06 w=8.4e-06 
+ as=1.877e-11 ad=2.562e-11 ps=2.057e-05 pd=2.29e-05 
+ nrs=0.27 nrd=0.36 
m229 1 142 62 1 penh l=1.1e-06 w=1.56e-05 
+ as=3.373e-11 ad=2.694e-11 ps=3.878e-05 pd=3.57e-05 
+ nrs=0.14 nrd=0.11 
m230 0 35 85 0 nenh l=1.1e-06 w=8.4e-06 
+ as=1.877e-11 ad=2.562e-11 ps=2.057e-05 pd=2.29e-05 
+ nrs=0.27 nrd=0.36 
m231 1 35 85 1 penh l=1.1e-06 w=1.56e-05 
+ as=3.373e-11 ad=2.694e-11 ps=3.878e-05 pd=3.57e-05 
+ nrs=0.14 nrd=0.11 
m232 143 144 0 0 nenh l=1.1e-06 w=8e-06 
+ as=1.32e-11 ad=1.788e-11 ps=1.13e-05 pd=1.959e-05 
+ nrs=0.21 nrd=0.28 
m233 0 145 143 0 nenh l=1.1e-06 w=8e-06 
+ as=1.788e-11 ad=1.32e-11 ps=1.959e-05 pd=1.13e-05 
+ nrs=0.28 nrd=0.21 
m234 146 144 143 1 penh l=1.1e-06 w=2.8e-05 
+ as=2.38e-11 ad=4.06e-11 ps=2.97e-05 pd=6.61e-05 
+ nrs=0.03 nrd=0.05 
m235 1 145 146 1 penh l=1.1e-06 w=2.8e-05 
+ as=6.054e-11 ad=2.38e-11 ps=6.96e-05 pd=2.97e-05 
+ nrs=0.08 nrd=0.03 
m236 147 140 142 0 nenh l=1.1e-06 w=1.6e-05 
+ as=1.36e-11 ad=2.24e-11 ps=1.77e-05 pd=3.81e-05 
+ nrs=0.05 nrd=0.09 
m237 0 113 147 0 nenh l=1.1e-06 w=1.6e-05 
+ as=3.575e-11 ad=1.36e-11 ps=3.918e-05 pd=1.77e-05 
+ nrs=0.14 nrd=0.05 
m238 142 140 1 1 penh l=1.1e-06 w=1.4e-05 
+ as=2.31e-11 ad=3.027e-11 ps=1.73e-05 pd=3.48e-05 
+ nrs=0.12 nrd=0.15 
m239 1 113 142 1 penh l=1.1e-06 w=1.4e-05 
+ as=3.027e-11 ad=2.31e-11 ps=3.48e-05 pd=1.73e-05 
+ nrs=0.15 nrd=0.12 
m240 148 144 149 0 nenh l=1.1e-06 w=1.6e-05 
+ as=1.36e-11 ad=2.24e-11 ps=1.77e-05 pd=3.81e-05 
+ nrs=0.05 nrd=0.09 
m241 0 145 148 0 nenh l=1.1e-06 w=1.6e-05 
+ as=3.575e-11 ad=1.36e-11 ps=3.918e-05 pd=1.77e-05 
+ nrs=0.14 nrd=0.05 
m242 149 144 1 1 penh l=1.1e-06 w=1.4e-05 
+ as=2.31e-11 ad=3.027e-11 ps=1.73e-05 pd=3.48e-05 
+ nrs=0.12 nrd=0.15 
m243 1 145 149 1 penh l=1.1e-06 w=1.4e-05 
+ as=3.027e-11 ad=2.31e-11 ps=3.48e-05 pd=1.73e-05 
+ nrs=0.15 nrd=0.12 
m244 150 152 151 0 nenh l=1.1e-06 w=1.6e-05 
+ as=2.507e-11 ad=2.8e-11 ps=2.557e-05 pd=3.81e-05 
+ nrs=0.1 nrd=0.11 
m245 0 76 150 0 nenh l=1.1e-06 w=1.6e-05 
+ as=3.575e-11 ad=2.507e-11 ps=3.918e-05 pd=2.557e-05 
+ nrs=0.14 nrd=0.1 
m246 150 75 0 0 nenh l=1.1e-06 w=1.6e-05 
+ as=2.507e-11 ad=3.575e-11 ps=2.557e-05 pd=3.918e-05 
+ nrs=0.1 nrd=0.14 
m247 151 152 1 1 penh l=1.1e-06 w=2.8e-05 
+ as=4.62e-11 ad=6.054e-11 ps=3.13e-05 pd=6.96e-05 
+ nrs=0.06 nrd=0.08 
m248 153 76 151 1 penh l=1.1e-06 w=2.8e-05 
+ as=4.62e-11 ad=4.62e-11 ps=3.13e-05 pd=3.13e-05 
+ nrs=0.06 nrd=0.06 
m249 1 75 153 1 penh l=1.1e-06 w=2.8e-05 
+ as=6.054e-11 ad=4.62e-11 ps=6.96e-05 pd=3.13e-05 
+ nrs=0.08 nrd=0.06 
m250 154 75 152 0 nenh l=1.1e-06 w=1.6e-05 
+ as=2.507e-11 ad=2.8e-11 ps=2.557e-05 pd=3.81e-05 
+ nrs=0.1 nrd=0.11 
m251 0 155 154 0 nenh l=1.1e-06 w=1.6e-05 
+ as=3.575e-11 ad=2.507e-11 ps=3.918e-05 pd=2.557e-05 
+ nrs=0.14 nrd=0.1 
m252 154 64 0 0 nenh l=1.1e-06 w=1.6e-05 
+ as=2.507e-11 ad=3.575e-11 ps=2.557e-05 pd=3.918e-05 
+ nrs=0.1 nrd=0.14 
m253 152 75 1 1 penh l=1.1e-06 w=2.8e-05 