chip2.sp SPICE FILE
.model nenh nmos
+ level = 2
+   vto = 0.779   kp = 3.52e-05   gamma = 1.04
+   phi = 0.6
+
+   cgso = 5.2e-10   cgdo = 5.2e-10
+   rsh = 25   cj = 0.00042
+   mj = 0.5   cjsw = 9e-10   mjsw = 0.33
+   tox = 5e-08   nsub = 1e+16
+   nss = 0   nfs = 1.306e+11   tpg = 1
+   xj = 3.85e-08   ld = 1e-07   uo = 400
+   ucrit = 999000   uexp = 0.001001
+   vmax = 32585.3   neff = 0.01001
+
+   delta = 1.33
.model penh pmos
+ level = 2
+   vto = -0.988   kp = 1.206e-05   gamma = 0.619
+   phi = 0.6
+
+   cgso = 4e-10   cgdo = 4e-10
+   rsh = 95   cj = 0.00032
+   mj = 0.5   cjsw = 5.5e-10   mjsw = 0.33
+   tox = 5e-08   nsub = 8.158e+14
+   nss = 0   nfs = 5.55e+09   tpg = -1
+   xj = 1.46e-07   ld = 2.52e-07   uo = 150
+   ucrit = 54941   uexp = 0.17
+   vmax = 100000   neff = 0.01001
+
+   delta = 1.129
.subckt cntl1b 1 2 3 4 5
+ 6 7 8 9 10 11
cc8 3 2 1.7682e-13
cc7 4 2 1.7584e-13
cc6 5 2 1.7486e-13
cc5 6 2 1.7388e-13
cc4 7 2 1.659e-13
cc3 8 2 1.659e-13
cc2 9 2 1.659e-13
cc1 10 2 1.659e-13
cdataout1 11 2 9.8e-15
.ends cntl1b
.subckt out16 1 2 3 4 5
+ 6 7 8 9
md13 10 7 2 2 nenh l=3e-06 w=7e-06 
+ as=5.6e-11 ad=5.6e-11 ps=3e-05 pd=3e-05 
md12 10 7 1 1 penh l=3e-06 w=1.4e-05 
+ as=1.12e-10 ad=1.12e-10 ps=4.4e-05 pd=4.4e-05 
md11 6 11 10 2 nenh l=3e-06 w=7e-06 
+ as=5.6e-11 ad=5.6e-11 ps=3e-05 pd=3e-05 
md10 6 3 10 1 penh l=3e-06 w=1.4e-05 
+ as=1.12e-10 ad=1.12e-10 ps=4.4e-05 pd=4.4e-05 
md9 11 3 1 1 penh l=3e-06 w=1.4e-05 
+ as=1.12e-10 ad=1.12e-10 ps=4.4e-05 pd=4.4e-05 
md8 11 3 2 2 nenh l=3e-06 w=7e-06 
+ as=5.6e-11 ad=5.6e-11 ps=3e-05 pd=3e-05 
md1 12 11 4 1 penh l=3e-06 w=1.4e-05 
+ as=1.12e-10 ad=1.12e-10 ps=4.4e-05 pd=4.4e-05 
md2 12 3 4 2 nenh l=3e-06 w=7e-06 
+ as=5.6e-11 ad=5.6e-11 ps=3e-05 pd=3e-05 
md3 6 3 5 2 nenh l=3e-06 w=7e-06 
+ as=5.6e-11 ad=5.6e-11 ps=3e-05 pd=3e-05 
md4 6 11 5 1 penh l=3e-06 w=1.4e-05 
+ as=1.12e-10 ad=1.12e-10 ps=4.4e-05 pd=4.4e-05 
md5 1 7 12 1 penh l=3e-06 w=1.4e-05 
+ as=1.12e-10 ad=1.12e-10 ps=4.4e-05 pd=4.4e-05 
md6 2 7 12 2 nenh l=3e-06 w=7e-06 
+ as=5.6e-11 ad=5.6e-11 ps=3e-05 pd=3e-05 
cc5 3 2 3.63e-14
cin16 4 2 8.4e-15
cout16 5 2 8.4e-15
cto32 6 2 2.408e-14
cfroms16 7 2 1.172e-14
cphi1b 8 2 8.1e-15
cphi2b 9 2 1.98e-14
cI0 10 2 4.2e-15
cI1 11 2 3.094e-14
cI2 12 2 4.2e-15
.ends out16
.subckt out32 1 2 3 4 5
+ 6 7
md13 8 5 2 2 nenh l=3e-06 w=7e-06 
+ as=5.6e-11 ad=5.6e-11 ps=3e-05 pd=3e-05 
md12 8 5 1 1 penh l=3e-06 w=1.4e-05 
+ as=1.12e-10 ad=1.12e-10 ps=4.4e-05 pd=4.4e-05 
md11 4 9 8 2 nenh l=3e-06 w=7e-06 
+ as=5.6e-11 ad=5.6e-11 ps=3e-05 pd=3e-05 
md10 4 3 8 1 penh l=3e-06 w=1.4e-05 
+ as=1.12e-10 ad=1.12e-10 ps=4.4e-05 pd=4.4e-05 
md9 9 3 1 1 penh l=3e-06 w=1.4e-05 
+ as=1.12e-10 ad=1.12e-10 ps=4.4e-05 pd=4.4e-05 
md8 9 3 2 2 nenh l=3e-06 w=7e-06 
+ as=5.6e-11 ad=5.6e-11 ps=3e-05 pd=3e-05 
md1 10 9 7 1 penh l=3e-06 w=1.4e-05 
+ as=1.12e-10 ad=1.12e-10 ps=4.4e-05 pd=4.4e-05 
md2 10 3 7 2 nenh l=3e-06 w=7e-06 
+ as=5.6e-11 ad=5.6e-11 ps=3e-05 pd=3e-05 
md3 4 3 6 2 nenh l=3e-06 w=7e-06 
+ as=5.6e-11 ad=5.6e-11 ps=3e-05 pd=3e-05 
md4 4 9 6 1 penh l=3e-06 w=1.4e-05 
+ as=1.12e-10 ad=1.12e-10 ps=4.4e-05 pd=4.4e-05 
md5 1 5 10 1 penh l=3e-06 w=1.4e-05 
+ as=1.12e-10 ad=1.12e-10 ps=4.4e-05 pd=4.4e-05 
md6 2 5 10 2 nenh l=3e-06 w=7e-06 
+ as=5.6e-11 ad=5.6e-11 ps=3e-05 pd=3e-05 
cc6 3 2 3.63e-14
cto64 4 2 2.408e-14
cfrom16 5 2 1.76e-14
cout32 6 2 8.4e-15
cin32 7 2 8.4e-15
cI0 8 2 4.2e-15
cI1 9 2 3.094e-14
cI2 10 2 4.2e-15
.ends out32
.subckt out64 1 2 3 4 5
+ 6 7
md6 2 4 8 2 nenh l=3e-06 w=7e-06 
+ as=5.6e-11 ad=5.6e-11 ps=3e-05 pd=3e-05 
md5 1 4 8 1 penh l=3e-06 w=1.4e-05 
+ as=1.12e-10 ad=1.12e-10 ps=4.4e-05 pd=4.4e-05 
md4 3 9 5 1 penh l=3e-06 w=1.4e-05 
+ as=1.12e-10 ad=1.12e-10 ps=4.4e-05 pd=4.4e-05 
md3 3 7 5 2 nenh l=3e-06 w=7e-06 
+ as=5.6e-11 ad=5.6e-11 ps=3e-05 pd=3e-05 
md2 8 7 6 2 nenh l=3e-06 w=7e-06 
+ as=5.6e-11 ad=5.6e-11 ps=3e-05 pd=3e-05 
md1 8 9 6 1 penh l=3e-06 w=1.4e-05 
+ as=1.12e-10 ad=1.12e-10 ps=4.4e-05 pd=4.4e-05 
md8 9 7 2 2 nenh l=3e-06 w=7e-06 
+ as=5.6e-11 ad=5.6e-11 ps=3e-05 pd=3e-05 
md9 9 7 1 1 penh l=3e-06 w=1.4e-05 
+ as=1.12e-10 ad=1.12e-10 ps=4.4e-05 pd=4.4e-05 
md10 3 7 10 1 penh l=3e-06 w=1.4e-05 
+ as=1.12e-10 ad=1.12e-10 ps=4.4e-05 pd=4.4e-05 
md11 3 9 10 2 nenh l=3e-06 w=7e-06 
+ as=5.6e-11 ad=5.6e-11 ps=3e-05 pd=3e-05 
md12 10 4 1 1 penh l=3e-06 w=1.4e-05 
+ as=1.12e-10 ad=1.12e-10 ps=4.4e-05 pd=4.4e-05 
md13 10 4 2 2 nenh l=3e-06 w=7e-06 
+ as=5.6e-11 ad=5.6e-11 ps=3e-05 pd=3e-05 
cto128 3 2 2.408e-14
cfrom32 4 2 1.76e-14
cout64 5 2 8.4e-15
cin64 6 2 8.4e-15
cc7 7 2 3.63e-14
cI0 8 2 4.2e-15
cI1 10 2 4.2e-15
cI2 9 2 3.094e-14
.ends out64
.subckt out128 1 2 3 4 5
+ 6 7
md13 8 4 2 2 nenh l=3e-06 w=7e-06 
+ as=5.6e-11 ad=5.6e-11 ps=3e-05 pd=3e-05 
md12 8 4 1 1 penh l=3e-06 w=1.4e-05 
+ as=1.12e-10 ad=1.12e-10 ps=4.4e-05 pd=4.4e-05 
md11 3 9 8 2 nenh l=3e-06 w=7e-06 
+ as=5.6e-11 ad=5.6e-11 ps=3e-05 pd=3e-05 
md10 3 7 8 1 penh l=3e-06 w=1.4e-05 
+ as=1.12e-10 ad=1.12e-10 ps=4.4e-05 pd=4.4e-05 
md9 9 7 1 1 penh l=3e-06 w=1.4e-05 
+ as=1.12e-10 ad=1.12e-10 ps=4.4e-05 pd=4.4e-05 
md8 9 7 2 2 nenh l=3e-06 w=7e-06 
+ as=5.6e-11 ad=5.6e-11 ps=3e-05 pd=3e-05 
md1 10 9 6 1 penh l=3e-06 w=1.4e-05 
+ as=1.12e-10 ad=1.12e-10 ps=4.4e-05 pd=4.4e-05 
md2 10 7 6 2 nenh l=3e-06 w=7e-06 
+ as=5.6e-11 ad=5.6e-11 ps=3e-05 pd=3e-05 
md3 3 7 5 2 nenh l=3e-06 w=7e-06 
+ as=5.6e-11 ad=5.6e-11 ps=3e-05 pd=3e-05 
md4 3 9 5 1 penh l=3e-06 w=1.4e-05 
+ as=1.12e-10 ad=1.12e-10 ps=4.4e-05 pd=4.4e-05 
md5 1 4 10 1 penh l=3e-06 w=1.4e-05 
+ as=1.12e-10 ad=1.12e-10 ps=4.4e-05 pd=4.4e-05 
md6 2 4 10 2 nenh l=3e-06 w=7e-06 
+ as=5.6e-11 ad=5.6e-11 ps=3e-05 pd=3e-05 
ctodout 3 2 2.408e-14
cfrom64 4 2 1.76e-14
cout128 5 2 8.4e-15
cin128 6 2 8.4e-15
cc8 7 2 3.63e-14
cI0 8 2 4.2e-15
cI1 9 2 3.094e-14
cI2 10 2 4.2e-15
.ends out128
.subckt outtop 1 2 3 4 5
+ 6 7 8 9 10 11
+ 12
md1 13 7 14 1 penh l=3e-06 w=1.4e-05 
+ as=1.12e-10 ad=1.12e-10 ps=4.4e-05 pd=4.4e-05 
md2 1 15 13 1 penh l=3e-06 w=1.4e-05 
+ as=1.12e-10 ad=1.12e-10 ps=4.4e-05 pd=4.4e-05 
md3 16 8 15 1 penh l=3e-06 w=1.4e-05 
+ as=1.12e-10 ad=1.12e-10 ps=4.4e-05 pd=4.4e-05 
md4 1 12 16 1 penh l=3e-06 w=1.4e-05 
+ as=1.12e-10 ad=1.12e-10 ps=4.4e-05 pd=4.4e-05 
md5 13 9 14 2 nenh l=3e-06 w=7e-06 
+ as=5.6e-11 ad=5.6e-11 ps=3e-05 pd=3e-05 
md6 2 15 13 2 nenh l=3e-06 w=7e-06 
+ as=5.6e-11 ad=5.6e-11 ps=3e-05 pd=3e-05 
md7 16 10 15 2 nenh l=3e-06 w=7e-06 
+ as=5.6e-11 ad=5.6e-11 ps=3e-05 pd=3e-05 
md8 2 12 16 2 nenh l=3e-06 w=7e-06 
+ as=5.6e-11 ad=5.6e-11 ps=3e-05 pd=3e-05 
md9 11 14 2 2 nenh l=3e-06 w=7e-06 
+ as=5.6e-11 ad=5.6e-11 ps=3e-05 pd=3e-05 
md10 2 14 11 2 nenh l=3e-06 w=7e-06 
+ as=5.6e-11 ad=5.6e-11 ps=3e-05 pd=3e-05 
md11 11 14 2 2 nenh l=3e-06 w=7e-06 
+ as=5.6e-11 ad=5.6e-11 ps=3e-05 pd=3e-05 
md12 2 14 11 2 nenh l=3e-06 w=7e-06 
+ as=5.6e-11 ad=5.6e-11 ps=3e-05 pd=3e-05 
md13 11 14 1 1 penh l=3e-06 w=1.4e-05 
+ as=1.12e-10 ad=1.12e-10 ps=4.4e-05 pd=4.4e-05 
md14 1 14 11 1 penh l=3e-06 w=1.4e-05 
+ as=1.12e-10 ad=1.12e-10 ps=4.4e-05 pd=4.4e-05 
md15 11 14 1 1 penh l=3e-06 w=1.4e-05 
+ as=1.12e-10 ad=1.12e-10 ps=4.4e-05 pd=4.4e-05 
md16 1 14 11 1 penh l=3e-06 w=1.4e-05 
+ as=1.12e-10 ad=1.12e-10 ps=4.4e-05 pd=4.4e-05 
cphi2b1 3 2 2.73e-14
cphi1b1 4 2 2.73e-14
cft1 5 2 1.008e-14
cft2 6 2 1.008e-14
cphi2b 7 2 8.1e-15
cphi1b 8 2 1.95e-14
cphi2 9 2 7.2e-15
cphi1 10 2 1.86e-14
cdataout 11 2 1.722e-14
cfrom128 12 2 1.776e-14
cI0 14 2 4.034e-14
cI1 13 2 4.2e-15
cI2 15 2 1.02e-14
cI3 16 2 4.2e-15
.ends outtop
.subckt muxout 1 2 3 4 5
+ 6 7 8 9 10 11
+ 12 13 14 15 16 17
+ 18 19 20 21 22 23
+ 24 25 26
xot160 1 2 3 4 5
+ 27 6 7 8 out16
xot320 1 2 9 31 27
+ 10 11 out32
xot640 1 2 35 31 12
+ 13 14 out64
xot1280 1 2 39 35 15
+ 16 17 out128
xottop0 1 2 18 19 20
+ 26 21 22 23 24 25
+ 39
+ outtop
.ends muxout
.subckt shtop 1 2 3 4 5
+ 6 7 8 9 10 11
+ 12 13 14
md16 15 9 4 1 penh l=3e-06 w=1.4e-05 
+ as=1.12e-10 ad=1.12e-10 ps=4.4e-05 pd=4.4e-05 
md15 16 15 1 1 penh l=3e-06 w=1.4e-05 
+ as=1.12e-10 ad=1.12e-10 ps=4.4e-05 pd=4.4e-05 
md14 17 10 16 1 penh l=3e-06 w=1.4e-05 
+ as=1.12e-10 ad=1.12e-10 ps=4.4e-05 pd=4.4e-05 
md13 3 17 1 1 penh l=3e-06 w=1.4e-05 
+ as=1.12e-10 ad=1.12e-10 ps=4.4e-05 pd=4.4e-05 
md12 3 17 2 2 nenh l=3e-06 w=7e-06 
+ as=5.6e-11 ad=5.6e-11 ps=3e-05 pd=3e-05 
md11 17 8 16 2 nenh l=3e-06 w=7e-06 
+ as=5.6e-11 ad=5.6e-11 ps=3e-05 pd=3e-05 
md10 16 15 2 2 nenh l=3e-06 w=7e-06 
+ as=5.6e-11 ad=5.6e-11 ps=3e-05 pd=3e-05 
md9 15 7 4 2 nenh l=3e-06 w=7e-06 
+ as=5.6e-11 ad=5.6e-11 ps=3e-05 pd=3e-05 
md8 2 18 5 2 nenh l=3e-06 w=7e-06 
+ as=5.6e-11 ad=5.6e-11 ps=3e-05 pd=3e-05 
md7 19 8 18 2 nenh l=3e-06 w=7e-06 
+ as=5.6e-11 ad=5.6e-11 ps=3e-05 pd=3e-05 
md6 2 20 19 2 nenh l=3e-06 w=7e-06 
+ as=5.6e-11 ad=5.6e-11 ps=3e-05 pd=3e-05 
md5 6 7 20 2 nenh l=3e-06 w=7e-06 
+ as=5.6e-11 ad=5.6e-11 ps=3e-05 pd=3e-05 
md4 11 18 5 1 penh l=3e-06 w=1.4e-05 
+ as=1.12e-10 ad=1.12e-10 ps=4.4e-05 pd=4.4e-05 
md3 19 14 18 1 penh l=3e-06 w=1.4e-05 
+ as=1.12e-10 ad=1.12e-10 ps=4.4e-05 pd=4.4e-05 
md2 12 20 19 1 penh l=3e-06 w=1.4e-05 
+ as=1.12e-10 ad=1.12e-10 ps=4.4e-05 pd=4.4e-05 
md1 6 13 20 1 penh l=3e-06 w=1.4e-05 
+ as=1.12e-10 ad=1.12e-10 ps=4.4e-05 pd=4.4e-05 
cvoutr 3 2 4.2e-15
cvinr 4 2 4.2e-15
cvoutl 5 2 4.2e-15
cvinl 6 2 4.2e-15
cphi1 7 2 2.46e-14
cphi2 8 2 2.46e-14
cphi1b 9 2 2.37e-14
cphi2b 10 2 2.28e-14
cvdd1 11 2 4e-15
cvdd2 12 2 4e-15
cphi2b1 13 2 9e-16
cphi1b1 14 2 9e-16
cI0 16 2 4.2e-15
cI1 17 2 7.8e-15
cI2 15 2 7.8e-15
cI3 18 2 7.8e-15
cI4 19 2 4.2e-15
cI5 20 2 7.8e-15
.ends shtop
.subckt revsh 1 2 3 4 5
+ 6 7 8 9 10 11
+ 12 13 14
md16 15 7 11 1 penh l=3e-06 w=1.4e-05 
+ as=1.12e-10 ad=1.12e-10 ps=4.4e-05 pd=4.4e-05 
md15 16 15 1 1 penh l=3e-06 w=1.4e-05 
+ as=1.12e-10 ad=1.12e-10 ps=4.4e-05 pd=4.4e-05 
md14 17 8 16 1 penh l=3e-06 w=1.4e-05 
+ as=1.12e-10 ad=1.12e-10 ps=4.4e-05 pd=4.4e-05 
md13 12 17 1 1 penh l=3e-06 w=1.4e-05 
+ as=1.12e-10 ad=1.12e-10 ps=4.4e-05 pd=4.4e-05 
md12 12 17 2 2 nenh l=3e-06 w=7e-06 
+ as=5.6e-11 ad=5.6e-11 ps=3e-05 pd=3e-05 
md11 17 6 16 2 nenh l=3e-06 w=7e-06 
+ as=5.6e-11 ad=5.6e-11 ps=3e-05 pd=3e-05 
md10 16 15 2 2 nenh l=3e-06 w=7e-06 
+ as=5.6e-11 ad=5.6e-11 ps=3e-05 pd=3e-05 
md9 15 5 11 2 nenh l=3e-06 w=7e-06 
+ as=5.6e-11 ad=5.6e-11 ps=3e-05 pd=3e-05 
md8 2 18 10 2 nenh l=3e-06 w=7e-06 
+ as=5.6e-11 ad=5.6e-11 ps=3e-05 pd=3e-05 
md7 19 6 18 2 nenh l=3e-06 w=7e-06 
+ as=5.6e-11 ad=5.6e-11 ps=3e-05 pd=3e-05 
md6 2 20 19 2 nenh l=3e-06 w=7e-06 
+ as=5.6e-11 ad=5.6e-11 ps=3e-05 pd=3e-05 
md5 9 5 20 2 nenh l=3e-06 w=7e-06 
+ as=5.6e-11 ad=5.6e-11 ps=3e-05 pd=3e-05 
md4 4 18 10 1 penh l=3e-06 w=1.4e-05 
+ as=1.12e-10 ad=1.12e-10 ps=4.4e-05 pd=4.4e-05 
md3 19 14 18 1 penh l=3e-06 w=1.4e-05 
+ as=1.12e-10 ad=1.12e-10 ps=4.4e-05 pd=4.4e-05 
md2 3 20 19 1 penh l=3e-06 w=1.4e-05 
+ as=1.12e-10 ad=1.12e-10 ps=4.4e-05 pd=4.4e-05 
md1 9 13 20 1 penh l=3e-06 w=1.4e-05 
+ as=1.12e-10 ad=1.12e-10 ps=4.4e-05 pd=4.4e-05 
cvdd2 3 2 4e-15
cvdd1 4 2 4e-15
cphi1 5 2 2.46e-14
cphi2 6 2 2.46e-14
cphi1b 7 2 2.46e-14
cphi2b 8 2 2.46e-14
cvinl 9 2 4.2e-15
cvoutl 10 2 4.2e-15
cvinr 11 2 4.2e-15
cvoutr 12 2 4.2e-15
cphi1b1 13 2 9e-16
cphi2b1 14 2 9e-16
cI0 16 2 4.2e-15
cI1 17 2 7.8e-15
cI2 15 2 7.8e-15
cI3 18 2 7.8e-15
cI4 19 2 4.2e-15
cI5 20 2 7.8e-15
.ends revsh
.subckt low20 1 2 3 4 5
+ 6 7 8 9 10 11
+ 12
md16 13 3 6 1 penh l=3e-06 w=1.4e-05 
+ as=1.12e-10 ad=1.12e-10 ps=4.4e-05 pd=4.4e-05 
md15 14 13 1 1 penh l=3e-06 w=1.4e-05 
+ as=1.12e-10 ad=1.12e-10 ps=4.4e-05 pd=4.4e-05 
md14 15 4 14 1 penh l=3e-06 w=1.4e-05 
+ as=1.12e-10 ad=1.12e-10 ps=4.4e-05 pd=4.4e-05 
md13 5 15 1 1 penh l=3e-06 w=1.4e-05 
+ as=1.12e-10 ad=1.12e-10 ps=4.4e-05 pd=4.4e-05 
md12 5 15 2 2 nenh l=3e-06 w=7e-06 
+ as=5.6e-11 ad=5.6e-11 ps=3e-05 pd=3e-05 
md11 15 10 14 2 nenh l=3e-06 w=7e-06 
+ as=5.6e-11 ad=5.6e-11 ps=3e-05 pd=3e-05 
md10 14 13 2 2 nenh l=3e-06 w=7e-06 
+ as=5.6e-11 ad=5.6e-11 ps=3e-05 pd=3e-05 
md9 13 9 6 2 nenh l=3e-06 w=7e-06 
+ as=5.6e-11 ad=5.6e-11 ps=3e-05 pd=3e-05 
md8 2 16 7 2 nenh l=3e-06 w=7e-06 
+ as=5.6e-11 ad=5.6e-11 ps=3e-05 pd=3e-05 
md7 17 10 16 2 nenh l=3e-06 w=7e-06 
+ as=5.6e-11 ad=5.6e-11 ps=3e-05 pd=3e-05 
md6 2 18 17 2 nenh l=3e-06 w=7e-06 
+ as=5.6e-11 ad=5.6e-11 ps=3e-05 pd=3e-05 
md5 8 9 18 2 nenh l=3e-06 w=7e-06 
+ as=5.6e-11 ad=5.6e-11 ps=3e-05 pd=3e-05 
md4 1 16 7 1 penh l=3e-06 w=1.4e-05 
+ as=1.12e-10 ad=1.12e-10 ps=4.4e-05 pd=4.4e-05 
md3 17 11 16 1 penh l=3e-06 w=1.4e-05 
+ as=1.12e-10 ad=1.12e-10 ps=4.4e-05 pd=4.4e-05 
md2 1 18 17 1 penh l=3e-06 w=1.4e-05 
+ as=1.12e-10 ad=1.12e-10 ps=4.4e-05 pd=4.4e-05 
md1 8 12 18 1 penh l=3e-06 w=1.4e-05 
+ as=1.12e-10 ad=1.12e-10 ps=4.4e-05 pd=4.4e-05 
cphi1b1 3 2 2.46e-14
cphi2b1 4 2 2.46e-14
cvoutr 5 2 4.2e-15
cvinr 6 2 4.2e-15
cvoutl 7 2 4.2e-15
cvinl 8 2 4.2e-15
cphi1 9 2 2.46e-14
cphi2 10 2 2.46e-14
cphi2b 11 2 2.37e-14
cphi1b 12 2 2.19e-14
cI0 14 2 4.2e-15
cI1 15 2 7.8e-15
cI2 13 2 7.8e-15
cI3 16 2 7.8e-15
cI4 18 2 7.8e-15
cI5 17 2 4.2e-15
.ends low20
.subckt slice20 1 2 3 4 5
+ 6 7 8 9 10 11
+ 12 13 14 15 16 17
+ 18 19 20 21 22 23
+ 24 25 26 27 28 29
+ 30 31 32 33 34 35
+ 36 37 38 39 40 41
+ 42 43 44 45 46 47
+ 48 49 50 51 52
xstrip60 1 2 3 4 5
+ 6 7 8 9 10 1
+ 1 13 14 shtop
xstrip50 1 2 1 1 11
+ 12 13 14 15 16 17
+ 18 21 22 revsh
xstrip40 1 2 1 1 19
+ 20 21 22 23 24 25
+ 26 29 30 revsh
xstrip30 1 2 1 1 27
+ 28 29 30 31 32 33
+ 34 37 38 revsh
xstrip20 1 2 1 1 35
+ 36 37 38 39 40 41
+ 42 52 51 revsh
xstrip10 1 2 52 51 43
+ 44 45 46 47 48 49
+ 50
+ low20
.ends slice20
.subckt low19 1 2 3 4 5
+ 6 7 8 9 10 11
+ 12
md16 13 3 6 1 penh l=3e-06 w=1.4e-05 
+ as=1.12e-10 ad=1.12e-10 ps=4.4e-05 pd=4.4e-05 
md15 14 13 1 1 penh l=3e-06 w=1.4e-05 
+ as=1.12e-10 ad=1.12e-10 ps=4.4e-05 pd=4.4e-05 
md14 15 4 14 1 penh l=3e-06 w=1.4e-05 
+ as=1.12e-10 ad=1.12e-10 ps=4.4e-05 pd=4.4e-05 
md13 5 15 1 1 penh l=3e-06 w=1.4e-05 
+ as=1.12e-10 ad=1.12e-10 ps=4.4e-05 pd=4.4e-05 
md12 5 15 2 2 nenh l=3e-06 w=7e-06 
+ as=5.6e-11 ad=5.6e-11 ps=3e-05 pd=3e-05 
md11 15 10 14 2 nenh l=3e-06 w=7e-06 
+ as=5.6e-11 ad=5.6e-11 ps=3e-05 pd=3e-05 
md10 14 13 2 2 nenh l=3e-06 w=7e-06 
+ as=5.6e-11 ad=5.6e-11 ps=3e-05 pd=3e-05 
md9 13 9 6 2 nenh l=3e-06 w=7e-06 
+ as=5.6e-11 ad=5.6e-11 ps=3e-05 pd=3e-05 
md8 2 16 7 2 nenh l=3e-06 w=7e-06 
+ as=5.6e-11 ad=5.6e-11 ps=3e-05 pd=3e-05 
md7 17 10 16 2 nenh l=3e-06 w=7e-06 
+ as=5.6e-11 ad=5.6e-11 ps=3e-05 pd=3e-05 
md6 2 18 17 2 nenh l=3e-06 w=7e-06 
+ as=5.6e-11 ad=5.6e-11 ps=3e-05 pd=3e-05 
md5 8 9 18 2 nenh l=3e-06 w=7e-06 
+ as=5.6e-11 ad=5.6e-11 ps=3e-05 pd=3e-05 
md4 1 16 7 1 penh l=3e-06 w=1.4e-05 
+ as=1.12e-10 ad=1.12e-10 ps=4.4e-05 pd=4.4e-05 
md3 17 11 16 1 penh l=3e-06 w=1.4e-05 
+ as=1.12e-10 ad=1.12e-10 ps=4.4e-05 pd=4.4e-05 
md2 1 18 17 1 penh l=3e-06 w=1.4e-05 
+ as=1.12e-10 ad=1.12e-10 ps=4.4e-05 pd=4.4e-05 
md1 8 12 18 1 penh l=3e-06 w=1.4e-05 
+ as=1.12e-10 ad=1.12e-10 ps=4.4e-05 pd=4.4e-05 
cphi1b1 3 2 2.46e-14
cphi2b1 4 2 2.46e-14
cvoutr 5 2 4.2e-15
cvinr 6 2 4.2e-15
cvoutl 7 2 4.2e-15
cvinl 8 2 4.2e-15
cphi1 9 2 2.46e-14
cphi2 10 2 2.46e-14
cphi2b 11 2 2.37e-14
cphi1b 12 2 2.37e-14
cI0 14 2 4.2e-15
cI1 15 2 7.8e-15
cI2 13 2 7.8e-15
cI3 16 2 7.8e-15
cI4 18 2 7.8e-15
cI5 17 2 4.2e-15
.ends low19
.subckt slice19 1 2 3 4 5
+ 6 7 8 9 10 11
+ 12 13 14 15 16 17
+ 18 19 20 21 22 23
+ 24 25 26 27 28 29
+ 30 31 32 33 34 35
+ 36 37 38 39 40 41
+ 42 43 44 45 46 47
+ 48 49 50 51 52
xstrip10 1 2 12 11 3
+ 4 5 6 7 8 9
+ 10
+ low19
xstrip20 1 2 1 1 13
+ 14 15 16 17 18 19
+ 20 12 11 revsh
xstrip30 1 2 1 1 21
+ 22 23 24 25 26 27
+ 28 15 16 revsh
xstrip40 1 2 1 1 29
+ 30 31 32 33 34 35
+ 36 23 24 revsh
xstrip50 1 2 1 1 37
+ 38 39 40 41 42 43
+ 44 31 32 revsh
xstrip60 1 2 45 46 47
+ 48 49 50 51 52 1
+ 1 39 40 shtop
.ends slice19
.subckt low18 1 2 3 4 5
+ 6 7 8 9 10 11
+ 12
md16 13 3 6 1 penh l=3e-06 w=1.4e-05 
+ as=1.12e-10 ad=1.12e-10 ps=4.4e-05 pd=4.4e-05 
md15 14 13 1 1 penh l=3e-06 w=1.4e-05 
+ as=1.12e-10 ad=1.12e-10 ps=4.4e-05 pd=4.4e-05 
md14 15 4 14 1 penh l=3e-06 w=1.4e-05 
+ as=1.12e-10 ad=1.12e-10 ps=4.4e-05 pd=4.4e-05 
md13 5 15 1 1 penh l=3e-06 w=1.4e-05 
+ as=1.12e-10 ad=1.12e-10 ps=4.4e-05 pd=4.4e-05 
md12 5 15 2 2 nenh l=3e-06 w=7e-06 
+ as=5.6e-11 ad=5.6e-11 ps=3e-05 pd=3e-05 
md11 15 10 14 2 nenh l=3e-06 w=7e-06 
+ as=5.6e-11 ad=5.6e-11 ps=3e-05 pd=3e-05 
md10 14 13 2 2 nenh l=3e-06 w=7e-06 
+ as=5.6e-11 ad=5.6e-11 ps=3e-05 pd=3e-05 
md9 13 9 6 2 nenh l=3e-06 w=7e-06 
+ as=5.6e-11 ad=5.6e-11 ps=3e-05 pd=3e-05 
md8 2 16 7 2 nenh l=3e-06 w=7e-06 
+ as=5.6e-11 ad=5.6e-11 ps=3e-05 pd=3e-05 
md7 17 10 16 2 nenh l=3e-06 w=7e-06 
+ as=5.6e-11 ad=5.6e-11 ps=3e-05 pd=3e-05 
md6 2 18 17 2 nenh l=3e-06 w=7e-06 
+ as=5.6e-11 ad=5.6e-11 ps=3e-05 pd=3e-05 
md5 8 9 18 2 nenh l=3e-06 w=7e-06 
+ as=5.6e-11 ad=5.6e-11 ps=3e-05 pd=3e-05 
md4 1 16 7 1 penh l=3e-06 w=1.4e-05 
+ as=1.12e-10 ad=1.12e-10 ps=4.4e-05 pd=4.4e-05 
md3 17 11 16 1 penh l=3e-06 w=1.4e-05 
+ as=1.12e-10 ad=1.12e-10 ps=4.4e-05 pd=4.4e-05 
md2 1 18 17 1 penh l=3e-06 w=1.4e-05 
+ as=1.12e-10 ad=1.12e-10 ps=4.4e-05 pd=4.4e-05 
md1 8 12 18 1 penh l=3e-06 w=1.4e-05 
+ as=1.12e-10 ad=1.12e-10 ps=4.4e-05 pd=4.4e-05 
cphi1b1 3 2 2.46e-14
cphi2b1 4 2 2.46e-14
cvoutr 5 2 4.2e-15
cvinr 6 2 4.2e-15
cvoutl 7 2 4.2e-15
cvinl 8 2 4.2e-15
cphi1 9 2 2.46e-14
cphi2 10 2 2.46e-14
cphi2b 11 2 2.28e-14
cphi1b 12 2 2.37e-14
cI0 14 2 4.2e-15
cI1 15 2 7.8e-15
cI2 13 2 7.8e-15
cI3 16 2 7.8e-15
cI4 18 2 7.8e-15
cI5 17 2 4.2e-15
.ends low18
.subckt slice18 1 2 3 4 5
+ 6 7 8 9 10 11
+ 12 13 14 15 16 17
+ 18 19 20 21 22 23
+ 24 25 26 27 28 29
+ 30 31 32 33 34 35
+ 36 37 38 39 40 41
+ 42 43 44 45 46 47
+ 48 49 50 51 52
xstrip10 1 2 12 11 3
+ 4 5 6 7 8 9
+ 10
+ low18
xstrip20 1 2 1 1 13
+ 14 15 16 17 18 19
+ 20 12 11 revsh
xstrip30 1 2 1 1 21
+ 22 23 24 25 26 27
+ 28 15 16 revsh
xstrip40 1 2 1 1 29
+ 30 31 32 33 34 35
+ 36 23 24 revsh
xstrip50 1 2 1 1 37
+ 38 39 40 41 42 43
+ 44 31 32 revsh
xstrip60 1 2 45 46 47
+ 48 49 50 51 52 1
+ 1 39 40 shtop
.ends slice18
.subckt low17 1 2 3 4 5
+ 6 7 8 9 10 11
+ 12
md16 13 3 6 1 penh l=3e-06 w=1.4e-05 
+ as=1.12e-10 ad=1.12e-10 ps=4.4e-05 pd=4.4e-05 
md15 14 13 1 1 penh l=3e-06 w=1.4e-05 
+ as=1.12e-10 ad=1.12e-10 ps=4.4e-05 pd=4.4e-05 
md14 15 4 14 1 penh l=3e-06 w=1.4e-05 
+ as=1.12e-10 ad=1.12e-10 ps=4.4e-05 pd=4.4e-05 
md13 5 15 1 1 penh l=3e-06 w=1.4e-05 
+ as=1.12e-10 ad=1.12e-10 ps=4.4e-05 pd=4.4e-05 
md12 5 15 2 2 nenh l=3e-06 w=7e-06 
+ as=5.6e-11 ad=5.6e-11 ps=3e-05 pd=3e-05 
md11 15 10 14 2 nenh l=3e-06 w=7e-06 
+ as=5.6e-11 ad=5.6e-11 ps=3e-05 pd=3e-05 
md10 14 13 2 2 nenh l=3e-06 w=7e-06 
+ as=5.6e-11 ad=5.6e-11 ps=3e-05 pd=3e-05 
md9 13 9 6 2 nenh l=3e-06 w=7e-06 
+ as=5.6e-11 ad=5.6e-11 ps=3e-05 pd=3e-05 
md8 2 16 7 2 nenh l=3e-06 w=7e-06 
+ as=5.6e-11 ad=5.6e-11 ps=3e-05 pd=3e-05 
md7 17 10 16 2 nenh l=3e-06 w=7e-06 
+ as=5.6e-11 ad=5.6e-11 ps=3e-05 pd=3e-05 
md6 2 18 17 2 nenh l=3e-06 w=7e-06 
+ as=5.6e-11 ad=5.6e-11 ps=3e-05 pd=3e-05 
md5 8 9 18 2 nenh l=3e-06 w=7e-06 
+ as=5.6e-11 ad=5.6e-11 ps=3e-05 pd=3e-05 
md4 1 16 7 1 penh l=3e-06 w=1.4e-05 
+ as=1.12e-10 ad=1.12e-10 ps=4.4e-05 pd=4.4e-05 
md3 17 11 16 1 penh l=3e-06 w=1.4e-05 
+ as=1.12e-10 ad=1.12e-10 ps=4.4e-05 pd=4.4e-05 
md2 1 18 17 1 penh l=3e-06 w=1.4e-05 
+ as=1.12e-10 ad=1.12e-10 ps=4.4e-05 pd=4.4e-05 
md1 8 12 18 1 penh l=3e-06 w=1.4e-05 
+ as=1.12e-10 ad=1.12e-10 ps=4.4e-05 pd=4.4e-05 
cphi1b1 3 2 2.46e-14
cphi2b1 4 2 2.46e-14
cvoutr 5 2 4.2e-15
cvinr 6 2 4.2e-15
cvoutl 7 2 4.2e-15
cvinl 8 2 4.2e-15
cphi1 9 2 2.46e-14
cphi2 10 2 2.46e-14
cphi2b 11 2 2.37e-14
cphi1b 12 2 2.37e-14
cI0 14 2 4.2e-15
cI1 15 2 7.8e-15
cI2 13 2 7.8e-15
cI3 16 2 7.8e-15
cI4 18 2 7.8e-15
cI5 17 2 4.2e-15
.ends low17
.subckt slice17 1 2 3 4 5
+ 6 7 8 9 10 11
+ 12 13 14 15 16 17
+ 18 19 20 21 22 23
+ 24 25 26 27 28 29
+ 30 31 32 33 34 35
+ 36 37 38 39 40 41
+ 42 43 44 45 46 47
+ 48 49 50 51 52
xstrip10 1 2 12 11 3
+ 4 5 6 7 8 9
+ 10
+ low17
xstrip20 1 2 1 1 13
+ 14 15 16 17 18 19
+ 20 12 11 revsh
xstrip30 1 2 1 1 21
+ 22 23 24 25 26 27
+ 28 15 16 revsh
xstrip40 1 2 1 1 29
+ 30 31 32 33 34 35
+ 36 23 24 revsh
xstrip50 1 2 1 1 37
+ 38 39 40 41 42 43
+ 44 31 32 revsh
xstrip60 1 2 45 46 47
+ 48 49 50 51 52 1
+ 1 39 40 shtop
.ends slice17
.subckt low16 1 2 3 4 5
+ 6 7 8 9 10 11
+ 12
md16 13 3 6 1 penh l=3e-06 w=1.4e-05 
+ as=1.12e-10 ad=1.12e-10 ps=4.4e-05 pd=4.4e-05 
md15 14 13 1 1 penh l=3e-06 w=1.4e-05 
+ as=1.12e-10 ad=1.12e-10 ps=4.4e-05 pd=4.4e-05 
md14 15 4 14 1 penh l=3e-06 w=1.4e-05 
+ as=1.12e-10 ad=1.12e-10 ps=4.4e-05 pd=4.4e-05 
md13 5 15 1 1 penh l=3e-06 w=1.4e-05 
+ as=1.12e-10 ad=1.12e-10 ps=4.4e-05 pd=4.4e-05 
md12 5 15 2 2 nenh l=3e-06 w=7e-06 
+ as=5.6e-11 ad=5.6e-11 ps=3e-05 pd=3e-05 
md11 15 10 14 2 nenh l=3e-06 w=7e-06 
+ as=5.6e-11 ad=5.6e-11 ps=3e-05 pd=3e-05 
md10 14 13 2 2 nenh l=3e-06 w=7e-06 
+ as=5.6e-11 ad=5.6e-11 ps=3e-05 pd=3e-05 
md9 13 9 6 2 nenh l=3e-06 w=7e-06 
+ as=5.6e-11 ad=5.6e-11 ps=3e-05 pd=3e-05 
md8 2 16 7 2 nenh l=3e-06 w=7e-06 
+ as=5.6e-11 ad=5.6e-11 ps=3e-05 pd=3e-05 
md7 17 10 16 2 nenh l=3e-06 w=7e-06 
+ as=5.6e-11 ad=5.6e-11 ps=3e-05 pd=3e-05 
md6 2 18 17 2 nenh l=3e-06 w=7e-06 
+ as=5.6e-11 ad=5.6e-11 ps=3e-05 pd=3e-05 
md5 8 9 18 2 nenh l=3e-06 w=7e-06 
+ as=5.6e-11 ad=5.6e-11 ps=3e-05 pd=3e-05 
md4 1 16 7 1 penh l=3e-06 w=1.4e-05 
+ as=1.12e-10 ad=1.12e-10 ps=4.4e-05 pd=4.4e-05 
md3 17 11 16 1 penh l=3e-06 w=1.4e-05 
+ as=1.12e-10 ad=1.12e-10 ps=4.4e-05 pd=4.4e-05 
md2 1 18 17 1 penh l=3e-06 w=1.4e-05 
+ as=1.12e-10 ad=1.12e-10 ps=4.4e-05 pd=4.4e-05 
md1 8 12 18 1 penh l=3e-06 w=1.4e-05 
+ as=1.12e-10 ad=1.12e-10 ps=4.4e-05 pd=4.4e-05 
cphi1b1 3 2 2.46e-14
cphi2b1 4 2 2.46e-14
cvoutr 5 2 4.2e-15
cvinr 6 2 4.2e-15
cvoutl 7 2 4.2e-15
cvinl 8 2 4.2e-15
cphi1 9 2 2.46e-14
cphi2 10 2 2.46e-14
cphi2b 11 2 2.37e-14
cphi1b 12 2 2.19e-14
cI0 14 2 4.2e-15
cI1 15 2 7.8e-15
cI2 13 2 7.8e-15
cI3 16 2 7.8e-15
cI4 18 2 7.8e-15
cI5 17 2 4.2e-15
.ends low16
.subckt slice16 1 2 3 4 5
+ 6 7 8 9 10 11
+ 12 13 14 15 16 17
+ 18 19 20 21 22 23
+ 24 25 26 27 28 29
+ 30 31 32 33 34 35
+ 36 37 38 39 40 41
+ 42 43 44 45 46 47
+ 48 49 50 51 52
xstrip10 1 2 12 11 3
+ 4 5 6 7 8 9
+ 10
+ low16
xstrip20 1 2 1 1 13
+ 14 15 16 17 18 19
+ 20 12 11 revsh
xstrip30 1 2 1 1 21
+ 22 23 24 25 26 27
+ 28 15 16 revsh
xstrip40 1 2 1 1 29
+ 30 31 32 33 34 35
+ 36 23 24 revsh
xstrip50 1 2 1 1 37
+ 38 39 40 41 42 43
+ 44 31 32 revsh
xstrip60 1 2 45 46 47
+ 48 49 50 51 52 1
+ 1 39 40 shtop
.ends slice16
.subckt low15 1 2 3 4 5
+ 6 7 8 9 10 11
+ 12
md16 13 3 6 1 penh l=3e-06 w=1.4e-05 
+ as=1.12e-10 ad=1.12e-10 ps=4.4e-05 pd=4.4e-05 
md15 14 13 1 1 penh l=3e-06 w=1.4e-05 
+ as=1.12e-10 ad=1.12e-10 ps=4.4e-05 pd=4.4e-05 
md14 15 4 14 1 penh l=3e-06 w=1.4e-05 
+ as=1.12e-10 ad=1.12e-10 ps=4.4e-05 pd=4.4e-05 
md13 5 15 1 1 penh l=3e-06 w=1.4e-05 
+ as=1.12e-10 ad=1.12e-10 ps=4.4e-05 pd=4.4e-05 
md12 5 15 2 2 nenh l=3e-06 w=7e-06 
+ as=5.6e-11 ad=5.6e-11 ps=3e-05 pd=3e-05 
md11 15 10 14 2 nenh l=3e-06 w=7e-06 
+ as=5.6e-11 ad=5.6e-11 ps=3e-05 pd=3e-05 
md10 14 13 2 2 nenh l=3e-06 w=7e-06 
+ as=5.6e-11 ad=5.6e-11 ps=3e-05 pd=3e-05 
md9 13 9 6 2 nenh l=3e-06 w=7e-06 
+ as=5.6e-11 ad=5.6e-11 ps=3e-05 pd=3e-05 
md8 2 16 7 2 nenh l=3e-06 w=7e-06 
+ as=5.6e-11 ad=5.6e-11 ps=3e-05 pd=3e-05 
md7 17 10 16 2 nenh l=3e-06 w=7e-06 
+ as=5.6e-11 ad=5.6e-11 ps=3e-05 pd=3e-05 
md6 2 18 17 2 nenh l=3e-06 w=7e-06 
+ as=5.6e-11 ad=5.6e-11 ps=3e-05 pd=3e-05 
md5 8 9 18 2 nenh l=3e-06 w=7e-06 
+ as=5.6e-11 ad=5.6e-11 ps=3e-05 pd=3e-05 
md4 1 16 7 1 penh l=3e-06 w=1.4e-05 
+ as=1.12e-10 ad=1.12e-10 ps=4.4e-05 pd=4.4e-05 
md3 17 11 16 1 penh l=3e-06 w=1.4e-05 
+ as=1.12e-10 ad=1.12e-10 ps=4.4e-05 pd=4.4e-05 
md2 1 18 17 1 penh l=3e-06 w=1.4e-05 
+ as=1.12e-10 ad=1.12e-10 ps=4.4e-05 pd=4.4e-05 
md1 8 12 18 1 penh l=3e-06 w=1.4e-05 
+ as=1.12e-10 ad=1.12e-10 ps=4.4e-05 pd=4.4e-05 
cphi1b1 3 2 2.46e-14
cphi2b1 4 2 2.46e-14
cvoutr 5 2 4.2e-15
cvinr 6 2 4.2e-15
cvoutl 7 2 4.2e-15
cvinl 8 2 4.2e-15
cphi1 9 2 2.46e-14
cphi2 10 2 2.46e-14
cphi2b 11 2 2.28e-14
cphi1b 12 2 2.46e-14
cI0 14 2 4.2e-15
cI1 15 2 7.8e-15
cI2 13 2 7.8e-15
cI3 16 2 7.8e-15
cI4 18 2 7.8e-15
cI5 17 2 4.2e-15
.ends low15
.subckt slice15 1 2 3 4 5
+ 6 7 8 9 10 11
+ 12 13 14 15 16 17
+ 18 19 20 21 22 23
+ 24 25 26 27 28 29
+ 30 31 32 33 34 35
+ 36 37 38 39 40 41
+ 42 43 44 45 46 47
+ 48 49 50 51 52
xstrip10 1 2 12 11 3
+ 4 5 6 7 8 9
+ 10
+ low15
xstrip20 1 2 1 1 13
+ 14 15 16 17 18 19
+ 20 12 11 revsh
xstrip30 1 2 1 1 21
+ 22 23 24 25 26 27
+ 28 15 16 revsh
xstrip40 1 2 1 1 29
+ 30 31 32 33 34 35
+ 36 23 24 revsh
xstrip50 1 2 1 1 37
+ 38 39 40 41 42 43
+ 44 31 32 revsh
xstrip60 1 2 45 46 47
+ 48 49 50 51 52 1
+ 1 39 40 shtop
.ends slice15
.subckt low14 1 2 3 4 5
+ 6 7 8 9 10 11
+ 12
md16 13 3 6 1 penh l=3e-06 w=1.4e-05 
+ as=1.12e-10 ad=1.12e-10 ps=4.4e-05 pd=4.4e-05 
md15 14 13 1 1 penh l=3e-06 w=1.4e-05 
+ as=1.12e-10 ad=1.12e-10 ps=4.4e-05 pd=4.4e-05 
md14 15 4 14 1 penh l=3e-06 w=1.4e-05 
+ as=1.12e-10 ad=1.12e-10 ps=4.4e-05 pd=4.4e-05 
md13 5 15 1 1 penh l=3e-06 w=1.4e-05 
+ as=1.12e-10 ad=1.12e-10 ps=4.4e-05 pd=4.4e-05 
md12 5 15 2 2 nenh l=3e-06 w=7e-06 
+ as=5.6e-11 ad=5.6e-11 ps=3e-05 pd=3e-05 
md11 15 10 14 2 nenh l=3e-06 w=7e-06 
+ as=5.6e-11 ad=5.6e-11 ps=3e-05 pd=3e-05 
md10 14 13 2 2 nenh l=3e-06 w=7e-06 
+ as=5.6e-11 ad=5.6e-11 ps=3e-05 pd=3e-05 
md9 13 9 6 2 nenh l=3e-06 w=7e-06 
+ as=5.6e-11 ad=5.6e-11 ps=3e-05 pd=3e-05 
md8 2 16 7 2 nenh l=3e-06 w=7e-06 
+ as=5.6e-11 ad=5.6e-11 ps=3e-05 pd=3e-05 
md7 17 10 16 2 nenh l=3e-06 w=7e-06 
+ as=5.6e-11 ad=5.6e-11 ps=3e-05 pd=3e-05 
md6 2 18 17 2 nenh l=3e-06 w=7e-06 
+ as=5.6e-11 ad=5.6e-11 ps=3e-05 pd=3e-05 
md5 8 9 18 2 nenh l=3e-06 w=7e-06 
+ as=5.6e-11 ad=5.6e-11 ps=3e-05 pd=3e-05 
md4 1 16 7 1 penh l=3e-06 w=1.4e-05 
+ as=1.12e-10 ad=1.12e-10 ps=4.4e-05 pd=4.4e-05 
md3 17 11 16 1 penh l=3e-06 w=1.4e-05 
+ as=1.12e-10 ad=1.12e-10 ps=4.4e-05 pd=4.4e-05 
md2 1 18 17 1 penh l=3e-06 w=1.4e-05 
+ as=1.12e-10 ad=1.12e-10 ps=4.4e-05 pd=4.4e-05 
md1 8 12 18 1 penh l=3e-06 w=1.4e-05 
+ as=1.12e-10 ad=1.12e-10 ps=4.4e-05 pd=4.4e-05 
cphi1b1 3 2 2.46e-14
cphi2b1 4 2 2.46e-14
cvoutr 5 2 4.2e-15
cvinr 6 2 4.2e-15
cvoutl 7 2 4.2e-15
cvinl 8 2 4.2e-15
cphi1 9 2 2.46e-14
cphi2 10 2 2.46e-14
cphi2b 11 2 2.37e-14
cphi1b 12 2 2.37e-14
cI0 14 2 4.2e-15
cI1 15 2 7.8e-15
cI2 13 2 7.8e-15
cI3 16 2 7.8e-15
cI4 18 2 7.8e-15
cI5 17 2 4.2e-15
.ends low14
.subckt slice14 1 2 3 4 5
+ 6 7 8 9 10 11
+ 12 13 14 15 16 17
+ 18 19 20 21 22 23
+ 24 25 26 27 28 29
+ 30 31 32 33 34 35
+ 36 37 38 39 40 41
+ 42 43 44 45 46 47
+ 48 49 50 51 52
xstrip10 1 2 12 11 3
+ 4 5 6 7 8 9
+ 10
+ low14
xstrip20 1 2 1 1 13
+ 14 15 16 17 18 19
+ 20 12 11 revsh
xstrip30 1 2 1 1 21
+ 22 23 24 25 26 27
+ 28 15 16 revsh
xstrip40 1 2 1 1 29
+ 30 31 32 33 34 35
+ 36 23 24 revsh
xstrip50 1 2 1 1 37
+ 38 39 40 41 42 43
+ 44 31 32 revsh
xstrip60 1 2 45 46 47
+ 48 49 50 51 52 1
+ 1 39 40 shtop
.ends slice14
.subckt low13 1 2 3 4 5
+ 6 7 8 9 10 11
+ 12
md16 13 3 6 1 penh l=3e-06 w=1.4e-05 
+ as=1.12e-10 ad=1.12e-10 ps=4.4e-05 pd=4.4e-05 
md15 14 13 1 1 penh l=3e-06 w=1.4e-05 
+ as=1.12e-10 ad=1.12e-10 ps=4.4e-05 pd=4.4e-05 
md14 15 4 14 1 penh l=3e-06 w=1.4e-05 
+ as=1.12e-10 ad=1.12e-10 ps=4.4e-05 pd=4.4e-05 
md13 5 15 1 1 penh l=3e-06 w=1.4e-05 
+ as=1.12e-10 ad=1.12e-10 ps=4.4e-05 pd=4.4e-05 
md12 5 15 2 2 nenh l=3e-06 w=7e-06 
+ as=5.6e-11 ad=5.6e-11 ps=3e-05 pd=3e-05 
md11 15 10 14 2 nenh l=3e-06 w=7e-06 
+ as=5.6e-11 ad=5.6e-11 ps=3e-05 pd=3e-05 
md10 14 13 2 2 nenh l=3e-06 w=7e-06 
+ as=5.6e-11 ad=5.6e-11 ps=3e-05 pd=3e-05 
md9 13 9 6 2 nenh l=3e-06 w=7e-06 
+ as=5.6e-11 ad=5.6e-11 ps=3e-05 pd=3e-05 
md8 2 16 7 2 nenh l=3e-06 w=7e-06 
+ as=5.6e-11 ad=5.6e-11 ps=3e-05 pd=3e-05 
md7 17 10 16 2 nenh l=3e-06 w=7e-06 
+ as=5.6e-11 ad=5.6e-11 ps=3e-05 pd=3e-05 
md6 2 18 17 2 nenh l=3e-06 w=7e-06 
+ as=5.6e-11 ad=5.6e-11 ps=3e-05 pd=3e-05 
md5 8 9 18 2 nenh l=3e-06 w=7e-06 
+ as=5.6e-11 ad=5.6e-11 ps=3e-05 pd=3e-05 
md4 1 16 7 1 penh l=3e-06 w=1.4e-05 
+ as=1.12e-10 ad=1.12e-10 ps=4.4e-05 pd=4.4e-05 
md3 17 11 16 1 penh l=3e-06 w=1.4e-05 
+ as=1.12e-10 ad=1.12e-10 ps=4.4e-05 pd=4.4e-05 
md2 1 18 17 1 penh l=3e-06 w=1.4e-05 
+ as=1.12e-10 ad=1.12e-10 ps=4.4e-05 pd=4.4e-05 
md1 8 12 18 1 penh l=3e-06 w=1.4e-05 
+ as=1.12e-10 ad=1.12e-10 ps=4.4e-05 pd=4.4e-05 
cphi1b1 3 2 2.46e-14
cphi2b1 4 2 2.46e-14
cvoutr 5 2 4.2e-15
cvinr 6 2 4.2e-15
cvoutl 7 2 4.2e-15
cvinl 8 2 4.2e-15
cphi1 9 2 2.46e-14
cphi2 10 2 2.46e-14
cphi2b 11 2 2.37e-14
cphi1b 12 2 2.19e-14
cI0 14 2 4.2e-15
cI1 15 2 7.8e-15
cI2 13 2 7.8e-15
cI3 16 2 7.8e-15
cI4 18 2 7.8e-15
cI5 17 2 4.2e-15
.ends low13
.subckt slice13 1 2 3 4 5
+ 6 7 8 9 10 11
+ 12 13 14 15 16 17
+ 18 19 20 21 22 23
+ 24 25 26 27 28 29
+ 30 31 32 33 34 35
+ 36 37 38 39 40 41
+ 42 43 44 45 46 47
+ 48 49 50 51 52
xstrip10 1 2 12 11 3
+ 4 5 6 7 8 9
+ 10
+ low13
xstrip20 1 2 1 1 13
+ 14 15 16 17 18 19
+ 20 12 11 revsh
xstrip30 1 2 1 1 21
+ 22 23 24 25 26 27
+ 28 15 16 revsh
xstrip40 1 2 1 1 29
+ 30 31 32 33 34 35
+ 36 23 24 revsh
xstrip50 1 2 1 1 37
+ 38 39 40 41 42 43
+ 44 31 32 revsh
xstrip60 1 2 45 46 47
+ 48 49 50 51 52 1
+ 1 39 40 shtop
.ends slice13
.subckt j11 1 2 3 4
cphi1b 3 2 1.02e-14
cphi2b 4 2 8.4e-15
.ends j11
.subckt j1 1 2 3 4 5
+ 6 7 8
cj2 3 2 1.008e-14
cj1 4 2 1.008e-14
cphi1 5 2 8.4e-15
cphi2 6 2 8.4e-15
cphi2b 7 2 8.4e-15
cphi1b 8 2 8.4e-15
.ends j1
.subckt j2 1 2 3 4 5
+ 6 7 8
cphi1 3 2 8.4e-15
cphi2 4 2 8.4e-15
cphi2b 5 2 8.4e-15
cphi1b 6 2 8.4e-15
cj2 7 2 8.4e-15
cj1 8 2 8.4e-15
.ends j2
.subckt j4 1 2 3 4 5
+ 6 7 8 9 10 11
+ 12 13 14 15 16
cj2 3 2 1.008e-14
cj1 4 2 2.114e-14
cj3 5 2 1.106e-14
cj4 6 2 8.4e-15
cphi1b#2 7 2 8.4e-15
cphi2b#2 8 2 8.4e-15
cphi2#2 9 2 8.4e-15
cphi1#2 10 2 8.4e-15
cphi1b#1 11 2 8.4e-15
cphi2b#1 12 2 8.4e-15
cvdd1 13 2 7.2e-15
cphi2#1 14 2 8.4e-15
cphi1#1 15 2 8.4e-15
cvss1 16 2 7.2e-15
.ends j4
.subckt con21 1 2 3 4 5
+ 6 7 8 9 10 11
+ 12 13 14 15 16 17
+ 18 19 20 21 22 23
+ 24 25 26 27 28 29
+ 30 31 32 33 34 35
+ 36 37 38 39 40 41
+ 42
xI40 1 2 3 4 j11
xj10 1 2 5 6 7
+ 8 9 10 j1
xj2#10 1 2 11 12 13
+ 14 15 16 j2
xj2#20 1 2 17 18 19
+ 20 21 22 j2
xj40 1 2 23 24 25
+ 26 27 28 29 30 31
+ 32 33 34 35 36 j4
xj2#30 1 2 37 38 39
+ 40 41 42 j2
.ends con21
.subckt low12 1 2 3 4 5