dac.sp SPICE FILE
.model nenh nmos
+ level = 2
+   vto = 0.62249   kp = 6.32664e-05   gamma = 0.639243
+   phi = 0.31
+
+   cgso = 2.89e-10   cgdo = 2.89e-10
+   rsh = 60   cj = 0.000327
+   mj = 1.067   cjsw = 1.74e-10   mjsw = 0.195
+   tox = 2.25e-08   nsub = 1.066e+16
+   nss = 3e+10   nfs = 4.55168e+12   tpg = 1
+   xj = 9e-07   ld = 0   uo = 1215.74
+   ucrit = 174667   uexp = 0.0461235
+   vmax = 177269   neff = 4.6883
+
+   delta = 0
.model penh pmos
+ level = 2
+   vto = -0.63025   kp = 2.63544e-05   gamma = 0.618101
+   phi = 0.541111
+
+   cgso = 3.35e-10   cgdo = 3.35e-10
+   rsh = 150   cj = 0.000475
+   mj = 0.341   cjsw = 2.23e-10   mjsw = 0.307
+   tox = 2.25e-08   nsub = 6.57544e+16
+   nss = 3e+10   nfs = 1.66844e+11   tpg = -1
+   xj = 1.12799e-07   ld = 3e-08   uo = 361.941
+   ucrit = 637449   uexp = 0.0888696
+   vmax = 63253.3   neff = 0.64354
+
+   delta = 0
.subckt CMP 1 2 3 4 5
+ 6 7 8 9
md1 10 4 3 9 penh l=5e-07 w=4.8e-06 
+ as=5.27999e-12 ad=2.24e-12 ps=7e-06 pd=3e-06 
+ nrs=0.229167 nrd=0.0972222 
md2 11 5 10 9 penh l=5e-07 w=4.8e-06 
+ as=2.24e-12 ad=4.31999e-12 ps=3e-06 pd=6.6e-06 
+ nrs=0.0972222 nrd=0.1875 
md3 6 8 10 9 penh l=5e-07 w=4.8e-06 
+ as=2.24e-12 ad=4.31999e-12 ps=3e-06 pd=6.6e-06 
+ nrs=0.0972222 nrd=0.1875 
md4 2 11 11 7 nenh l=5e-07 w=2.4e-06 
+ as=1.92e-12 ad=3.84e-12 ps=4.2e-06 pd=5.6e-06 
+ nrs=0.333333 nrd=0.666666 
md5 2 11 6 7 nenh l=5e-07 w=2.4e-06 
+ as=1.92e-12 ad=3.84e-12 ps=4.2e-06 pd=5.6e-06 
+ nrs=0.333333 nrd=0.666666 
c1 2 7 1.14593e-12
c2 6 7 3.3125e-13
c3 7 11 4.02e-13
c4 7 8 6.74875e-13
c5 5 7 2.76104e-13
c6 7 10 8e-18
c7 4 7 4.13662e-13
c8 3 7 1.3488e-12
c9 3 8 1.5e-13
c10 2 10 3.825e-14
c11 2 11 1.4625e-14
c12 5 10 1.4575e-13
c13 6 8 6.6528e-14
c14 5 11 8.175e-14
c15 2 3 3.165e-13
c16 2 8 4.125e-13
c17 3 5 2.955e-13
c18 4 10 1.42e-13
c19 4 11 9e-15
c20 5 8 2e-14
c21 2 6 3.4875e-13
c22 3 4 5.7e-14
c23 4 8 3.5e-14
c24 2 5 4.35e-14
c25 4 6 6.375e-14
c26 3 10 3.825e-14
c27 3 11 2.76375e-13
c28 2 4 2.845e-13
c29 11 8 1.47312e-13
c30 4 5 1.5e-14
.ends CMP
.subckt z2xCMP 1 2 3 4 5
+ 6 7 8 9 10 11
xCMP#1 9 10 2 7 11
+ 6 1 4 2 CMP
xCMP#0 8 10 2 7 11
+ 5 1 3 2 CMP
.ends z2xCMP
.subckt AVddRtg 1 2 3
c31 1 2 6.9264e-12
.ends AVddRtg
.subckt FlashLatchBlnk 1 2 3 4 5
+ 6
c32 1 4 2.9244e-13
c33 1 5 2.69976e-13
c34 1 2 2.68104e-13
c35 1 3 2.88288e-13
c36 5 6 2.1e-14
c37 2 6 2.1e-14
c38 3 6 2.1e-14
c39 4 6 2.1e-14
.ends FlashLatchBlnk
.subckt FlashLatch 1 2 3 4 5
+ 6 7 8 9 10
md6 11 12 10 10 penh l=2e-07 w=2.2e-06 
+ as=1.81396e-12 ad=1.01e-12 ps=3.81886e-06 pd=3.8e-06 
+ nrs=0.374785 nrd=0.208678 
md7 4 13 10 10 penh l=2e-07 w=2.2e-06 
+ as=1.81396e-12 ad=1.01e-12 ps=3.81886e-06 pd=3.8e-06 
+ nrs=0.374785 nrd=0.208678 
md8 14 1 10 10 penh l=2e-07 w=1.8e-06 
+ as=1.48415e-12 ad=7.41598e-13 ps=3.12453e-06 pd=2.23199e-06 
+ nrs=0.458071 nrd=0.228889 
md9 10 11 15 10 penh l=2e-07 w=2.2e-06 
+ as=1.00222e-12 ad=1.81396e-12 ps=3.42221e-06 pd=3.81886e-06 
+ nrs=0.207071 nrd=0.374785 
md10 10 4 3 10 penh l=2e-07 w=2.2e-06 
+ as=8.19309e-13 ad=1.81396e-12 ps=2.50344e-06 pd=3.81886e-06 
+ nrs=0.169279 nrd=0.374785 
md11 11 12 2 2 nenh l=2e-07 w=1.1e-06 
+ as=1.30942e-12 ad=8.79999e-13 ps=4.01923e-06 pd=2.7e-06 
+ nrs=1.08216 nrd=0.727272 
md12 12 5 14 2 nenh l=2e-07 w=7e-07 
+ as=3.40666e-13 ad=3.15e-13 ps=9.79999e-07 pd=9e-07 
+ nrs=0.695237 nrd=0.642857 
md13 15 6 12 2 nenh l=2e-07 w=7e-07 
+ as=3.15e-13 ad=3.66799e-13 ps=9e-07 pd=1.26e-06 
+ nrs=0.642857 nrd=0.74857 
md14 12 6 14 10 penh l=2e-07 w=7e-07 
+ as=2.884e-13 ad=3.15e-13 ps=8.67999e-07 pd=9e-07 
+ nrs=0.588571 nrd=0.642857 
md15 15 5 12 10 penh l=2e-07 w=7e-07 
+ as=3.15e-13 ad=3.18888e-13 ps=9e-07 pd=1.08889e-06 
+ nrs=0.642857 nrd=0.650793 
md16 4 13 2 2 nenh l=2e-07 w=1.1e-06 
+ as=1.30942e-12 ad=8.79999e-13 ps=4.01923e-06 pd=2.7e-06 
+ nrs=1.08216 nrd=0.727272 
md17 13 7 15 2 nenh l=2e-07 w=7e-07 
+ as=3.66799e-13 ad=3.15e-13 ps=1.26e-06 pd=9e-07 
+ nrs=0.74857 nrd=0.642857 
md18 3 8 13 2 nenh l=2e-07 w=7e-07 
+ as=3.15e-13 ad=2.91666e-13 ps=9e-07 pd=8.55554e-07 
+ nrs=0.642857 nrd=0.595238 
md19 13 8 15 10 penh l=2e-07 w=7e-07 
+ as=3.18888e-13 ad=3.15e-13 ps=1.08889e-06 pd=9e-07 
+ nrs=0.650793 nrd=0.642857 
md20 3 7 13 10 penh l=2e-07 w=7e-07 
+ as=3.15e-13 ad=2.60689e-13 ps=9e-07 pd=7.96551e-07 
+ nrs=0.642857 nrd=0.532019 
md21 14 1 2 2 nenh l=2e-07 w=7.99999e-07 
+ as=9.52306e-13 ad=3.89332e-13 ps=2.92307e-06 pd=1.12e-06 
+ nrs=1.48798 nrd=0.608333 
md22 2 11 15 2 nenh l=2e-07 w=1.1e-06 
+ as=5.76399e-13 ad=1.30942e-12 ps=1.98e-06 pd=4.01923e-06 
+ nrs=0.476363 nrd=1.08216 
md23 2 4 3 2 nenh l=2e-07 w=1.1e-06 
+ as=4.58333e-13 ad=1.30942e-12 ps=1.34444e-06 pd=4.01923e-06 
+ nrs=0.378788 nrd=1.08216 
c40 2 9 3.0125e-13
c41 2 3 5.6252e-14
c42 2 7 1.9336e-13
c43 2 8 3.68023e-13
c44 2 15 1.43756e-13
c45 2 5 1.9336e-13
c46 2 6 2.86102e-13
c47 14 2 3.7502e-14
c48 1 2 8.7375e-14
c49 2 13 2.38125e-13
c50 2 4 1.60877e-13
c51 2 12 2.38125e-13
c52 2 11 1.42127e-13
c53 15 10 5.3125e-14
c54 5 10 2.1e-14
c55 12 11 1.6632e-14
c56 6 10 2.9e-14
c57 11 15 2.1255e-14
c58 11 5 2.8508e-14
c59 7 13 3.1632e-14
c60 12 15 1.188e-14
c61 12 5 3.1632e-14
c62 4 7 2.8508e-14
c63 12 6 2.4948e-14
c64 13 9 4.752e-15
c65 15 5 9.1125e-14
c66 8 13 2.4948e-14
c67 4 9 6.627e-15
c68 7 10 2.1e-14
c69 3 7 9.1125e-14
c70 9 10 5.625e-14
c71 8 10 2.1e-14
c72 3 9 1.875e-15
c73 14 6 6e-14
c74 11 9 6.627e-15
c75 12 9 4.752e-15
c76 15 9 1.875e-15
c77 5 9 1.5e-14
c78 15 8 8.38199e-14
c79 6 9 1.5e-14
c80 4 13 1.6632e-14
c81 7 9 1.5e-14
c82 3 13 1.188e-14
c83 3 4 2.1255e-14
c84 8 9 1.5e-14
c85 1 6 3.8133e-14
c86 3 10 5.3125e-14
.ends FlashLatch
.subckt z2xFlashLatch 1 2 3 4 5
+ 6 7 8 9 10 11
+ 12 13 14
xFlashLatch#1 14 1 10 9 5
+ 6 3 4 12 2 FlashLatch
xFlashLatch#0 13 1 7 8 5
+ 6 3 4 11 2 FlashLatch
.ends z2xFlashLatch
.subckt z65xFlashLatch 1 2 3 4 5
+ 6 7 8 9 10 11
+ 12 13 14 15 16 17
+ 18 19 20 21 22 23
+ 24 25 26 27 28 29
+ 30 31 32 33 34 35
+ 36 37 38 39 40 41
+ 42 43 44 45 46 47
+ 48 49 50 51 52 53
+ 54 55 56 57 58 59
+ 60 61 62 63 64 65
+ 66 67 68 69 70 71
+ 72 73 74 75 76 77
+ 78 79 80 81 82 83
+ 84 85 86 87 88 89
+ 90 91 92 93 94 95
+ 96 97 98 99 100 101
+ 102 103 104 105 106 107
+ 108 109 110 111 112 113
+ 114 115 116 117 118 119
+ 120 121 122 123 124 125
+ 126 127 128 129 130 131
+ 132 133 134 135 136 137
+ 138 139 140 141 142 143
+ 144 145 146 147 148 149
+ 150 151 152 153 154 155
+ 156 157 158 159 160 161
+ 162 163 164 165 166 167
+ 168 169 170 171 172 173
+ 174 175 176 177 178 179
+ 180 181 182 183 184 185
+ 186 187 188 189 190 191
+ 192 193 194 195 196 197
+ 198 199 200 201 202 203
+ 204 205 206 207 208 209
+ 210 211 212 213 214 215
+ 216 217 218 219 220 221
+ 222 223 224 225 226 227
+ 228 229 230 231 232 233
+ 234 235 236 237 238 239
+ 240 241 242 243 244 245
+ 246 247 248 249 250 251
+ 252 253 254 255 256 257
+ 258 259 260 261 262 263
+ 264 265 266
xFlashLatch#0 195 1 101 87 145
+ 156 123 134 142 2 FlashLatch
xz2xFlashLatch#0#0 1 2 123 134 145
+ 156 33 266 216 34 256
+ 225 129 192 z2xFlashLatch
xz2xFlashLatch#0#1 1 2 123 134 145
+ 156 27 260 203 239 221
+ 238 160 140 z2xFlashLatch
xz2xFlashLatch#0#2 1 2 123 134 145
+ 156 71 54 16 38 98
+ 75 183 141 z2xFlashLatch
xz2xFlashLatch#0#3 1 2 123 134 145
+ 156 106 92 65 79 21
+ 237 191 170 z2xFlashLatch
xz2xFlashLatch#0#4 1 2 123 134 145
+ 156 232 197 200 233 122
+ 113 137 188 z2xFlashLatch
xz2xFlashLatch#0#5 1 2 123 134 145
+ 156 223 7 13 36 74
+ 47 139 194 z2xFlashLatch
xz2xFlashLatch#0#6 1 2 123 134 145
+ 156 31 264 213 248 236
+ 11 169 152 z2xFlashLatch
xz2xFlashLatch#0#7 1 2 123 134 145
+ 156 73 58 22 42 112
+ 93 187 153 z2xFlashLatch
xz2xFlashLatch#0#8 1 2 123 134 145
+ 156 107 95 69 83 48
+ 10 193 180 z2xFlashLatch
xz2xFlashLatch#0#9 1 2 123 134 145
+ 156 242 205 209 245 212
+ 227 150 190 z2xFlashLatch
xz2xFlashLatch#0#10 1 2 123 134 145
+ 156 229 167 109 117 105
+ 108 146 173 z2xFlashLatch
xz2xFlashLatch#0#11 1 2 123 134 145
+ 156 28 261 204 240 86
+ 199 174 128 z2xFlashLatch
xz2xFlashLatch#0#12 1 2 123 134 145
+ 156 263 234 243 3 259
+ 210 144 159 z2xFlashLatch
xz2xFlashLatch#0#13 1 2 123 134 145
+ 156 57 37 39 60 8
+ 26 172 125 z2xFlashLatch
xz2xFlashLatch#0#14 1 2 123 134 145
+ 156 94 78 80 96 62
+ 30 126 155 z2xFlashLatch
xz2xFlashLatch#0#15 1 2 123 134 145
+ 156 224 110 111 118 207
+ 77 157 182 z2xFlashLatch
xz2xFlashLatch#0#16 1 2 123 134 145
+ 156 32 265 214 198 226
+ 249 124 138 z2xFlashLatch
xz2xFlashLatch#0#17 1 2 123 134 145
+ 156 5 246 250 9 29
+ 253 154 168 z2xFlashLatch
xz2xFlashLatch#0#18 1 2 123 134 145
+ 156 61 41 43 63 40
+ 53 181 135 z2xFlashLatch
xz2xFlashLatch#0#19 1 2 123 134 145
+ 156 97 82 84 99 81
+ 55 136 165 z2xFlashLatch
xz2xFlashLatch#0#20 1 2 123 134 145
+ 156 230 178 114 119 252
+ 196 166 186 z2xFlashLatch
xz2xFlashLatch#0#21 1 2 123 134 145
+ 156 201 6 219 206 262
+ 18 133 151 z2xFlashLatch
xz2xFlashLatch#0#22 1 2 123 134 145
+ 156 14 251 254 17 56
+ 25 164 179 z2xFlashLatch
xz2xFlashLatch#0#23 1 2 123 134 145
+ 156 64 45 46 66 189
+ 72 185 148 z2xFlashLatch
xz2xFlashLatch#0#24 1 2 123 134 145
+ 156 100 85 88 102 218
+ 231 149 176 z2xFlashLatch
xz2xFlashLatch#0#25 1 2 123 134 145
+ 156 235 202 115 120 24
+ 244 177 132 z2xFlashLatch
xz2xFlashLatch#0#26 1 2 123 134 145
+ 156 208 15 222 215 35
+ 44 147 163 z2xFlashLatch
xz2xFlashLatch#0#27 1 2 123 134 145
+ 156 19 255 258 23 76
+ 51 175 130 z2xFlashLatch
xz2xFlashLatch#0#28 1 2 123 134 145
+ 156 67 49 52 70 241
+ 91 131 161 z2xFlashLatch
xz2xFlashLatch#0#29 1 2 123 134 145
+ 156 103 89 90 104 257
+ 4 162 184 z2xFlashLatch
xz2xFlashLatch#0#30 1 2 123 134 145
+ 156 247 211 116 121 50
+ 12 127 143 z2xFlashLatch
xz2xFlashLatch#0#31 1 2 123 134 145
+ 156 217 20 228 220 59
+ 68 158 171 z2xFlashLatch
.ends z65xFlashLatch
.subckt FlashOFlo 1 2 3 4 5
md24 6 4 2 2 nenh l=2e-07 w=3.1e-06 
+ as=3.04745e-12 ad=7.8288e-13 ps=6.88304e-06 pd=6.8305e-07 
+ nrs=0.317113 nrd=0.0814651 
md25 2 7 3 2 nenh l=2e-07 w=1.4e-06 
+ as=6.29999e-13 ad=1.37627e-12 ps=9e-07 pd=3.10847e-06 
+ nrs=0.321428 nrd=0.702178 
md26 3 7 2 2 nenh l=2e-07 w=1.4e-06 
+ as=1.37627e-12 ad=6.29999e-13 ps=3.10847e-06 pd=9e-07 
+ nrs=0.702178 nrd=0.321428 
md27 7 1 6 2 nenh l=2e-07 w=2.8e-06 
+ as=7.07117e-13 ad=1.54e-12 ps=6.16948e-07 pd=4.39999e-06 
+ nrs=0.0901935 nrd=0.196429 
md28 7 4 5 5 penh l=2e-07 w=1.5e-06 
+ as=1.85281e-12 ad=7.99999e-13 ps=4.07745e-06 pd=3.1e-06 
+ nrs=0.823473 nrd=0.355556 
md29 5 7 3 5 penh l=2e-07 w=2.8e-06 
+ as=1.26e-12 ad=3.45858e-12 ps=9e-07 pd=7.61127e-06 
+ nrs=0.160714 nrd=0.441146 
md30 3 7 5 5 penh l=2e-07 w=2.8e-06 
+ as=3.45858e-12 ad=1.26e-12 ps=7.61127e-06 pd=9e-07 
+ nrs=0.441146 nrd=0.160714 
c87 2 3 3.89625e-13
c88 2 7 5.20127e-13
c89 1 2 1.74e-13
c90 2 4 3.51567e-13
c91 7 5 2.36877e-13
c92 6 5 5.5875e-14
c93 3 5 5.625e-15
c94 1 5 9.8823e-14
c95 2 5 4.90625e-13
c96 4 5 5.675e-14
c97 3 7 4.6332e-14
c98 1 7 1.4256e-14
.ends FlashOFlo
.subckt Flash3ANDS 1 2 3 4 5
+ 6 7 8 9
md31 9 3 10 9 penh l=1.1e-06 w=5e-07 
+ as=3.47499e-13 ad=4.78289e-13 ps=1.45e-06 pd=1.26316e-06 
+ nrs=1.39 nrd=1.91316 
md32 10 7 9 9 penh l=2e-07 w=1.5e-06 
+ as=1.43487e-12 ad=1.0425e-12 ps=3.78947e-06 pd=4.35e-06 
+ nrs=0.637719 nrd=0.463333 
md33 9 10 3 9 penh l=2e-07 w=2.8e-06 
+ as=1.26e-12 ad=2.67841e-12 ps=9e-07 pd=7.07368e-06 
+ nrs=0.160714 nrd=0.341635 
md34 3 10 9 9 penh l=2e-07 w=2.8e-06 
+ as=2.67841e-12 ad=1.26e-12 ps=7.07368e-06 pd=9e-07 
+ nrs=0.341635 nrd=0.160714 
md35 10 2 11 4 nenh l=2e-07 w=2.8e-06 
+ as=6.99999e-13 ad=1.54e-12 ps=5e-07 pd=4.39999e-06 
+ nrs=0.0892856 nrd=0.196429 
md36 12 7 4 4 nenh l=2e-07 w=3.1e-06 
+ as=2.79e-12 ad=7.8288e-13 ps=6.14745e-06 pd=6.8305e-07 
+ nrs=0.290322 nrd=0.0814651 
md37 4 10 3 4 nenh l=2e-07 w=1.4e-06 
+ as=6.29999e-13 ad=1.26e-12 ps=9e-07 pd=2.77627e-06 
+ nrs=0.321428 nrd=0.642857 
md38 3 10 4 4 nenh l=2e-07 w=1.4e-06 
+ as=1.26e-12 ad=6.29999e-13 ps=2.77627e-06 pd=9e-07 
+ nrs=0.642857 nrd=0.321428 
md39 13 1 12 4 nenh l=2e-07 w=2.8e-06 
+ as=7.07117e-13 ad=6.99999e-13 ps=6.16948e-07 pd=5e-07 
+ nrs=0.0901935 nrd=0.0892856 
md40 11 5 13 4 nenh l=2e-07 w=2.8e-06 
+ as=6.99999e-13 ad=6.99999e-13 ps=5e-07 pd=5e-07 
+ nrs=0.0892856 nrd=0.0892856 
c99 4 8 2.8875e-13
c100 2 4 1.3034e-13
c101 4 5 2.6558e-13
c102 3 4 5.79e-13
c103 4 6 2.66375e-13
c104 1 4 1.16e-13
c105 10 4 5.29754e-13
c106 4 7 3.15307e-13
c107 7 9 5.075e-14
c108 11 6 1.25e-14
c109 3 10 7.722e-14
c110 11 9 4.5e-14
c111 12 6 1.4375e-14
c112 3 9 3.75e-15
c113 5 6 1.188e-14
c114 1 5 1.188e-14
c115 6 8 1.782e-14
c116 1 8 1.782e-14
c117 12 9 4.725e-14
c118 10 8 3.126e-14
c119 5 9 1.07375e-13
c120 5 7 5.8076e-14
c121 13 6 1.25e-14
c122 8 9 1.68125e-13
c123 7 8 2.688e-14
c124 1 6 1.188e-14
c125 13 9 4.5e-14
c126 10 6 4.314e-14
c127 1 10 1.5444e-14
c128 2 6 1.188e-14
c129 3 8 2.8125e-14
c130 6 9 1.61698e-13
c131 1 9 7.5012e-14
c132 6 7 4.47e-14
c133 4 9 3.9725e-13
c134 10 9 1.75377e-13
c135 2 9 2.1e-14
.ends Flash3ANDS
.subckt z2xFlashANDN 1 2 3 4 5
+ 6 7 8 9
xFlashOFlo#0 4 1 8 7 2 FlashOFlo
xFlash3ANDS#0 2 3 9 1 5
+ 4 7 6 2 Flash3ANDS
.ends z2xFlashANDN
.subckt Flash3ANDN 1 2 3 4 5
+ 6 7 8 9
md41 10 7 4 4 nenh l=2e-07 w=3.1e-06 
+ as=2.79e-12 ad=7.8288e-13 ps=6.14745e-06 pd=6.8305e-07 
+ nrs=0.290322 nrd=0.0814651 
md42 4 11 3 4 nenh l=2e-07 w=1.4e-06 
+ as=6.29999e-13 ad=1.26e-12 ps=9e-07 pd=2.77627e-06 
+ nrs=0.321428 nrd=0.642857 
md43 3 11 4 4 nenh l=2e-07 w=1.4e-06 
+ as=1.26e-12 ad=6.29999e-13 ps=2.77627e-06 pd=9e-07 
+ nrs=0.642857 nrd=0.321428 
md44 12 1 10 4 nenh l=2e-07 w=2.8e-06 
+ as=7.07117e-13 ad=6.99999e-13 ps=6.16948e-07 pd=5e-07 
+ nrs=0.0901935 nrd=0.0892856 
md45 13 5 12 4 nenh l=2e-07 w=2.8e-06 
+ as=6.99999e-13 ad=6.99999e-13 ps=5e-07 pd=5e-07 
+ nrs=0.0892856 nrd=0.0892856 
md46 11 2 13 4 nenh l=2e-07 w=2.8e-06 
+ as=6.99999e-13 ad=1.54e-12 ps=5e-07 pd=4.39999e-06 
+ nrs=0.0892856 nrd=0.196429 
md47 9 3 11 9 penh l=1.1e-06 w=5e-07 
+ as=4.09999e-13 ad=5.7763e-13 ps=1.7e-06 pd=1.27631e-06 
+ nrs=1.64 nrd=2.31052 
md48 11 7 9 9 penh l=2e-07 w=1.5e-06 
+ as=1.73289e-12 ad=1.23e-12 ps=3.82894e-06 pd=5.1e-06 
+ nrs=0.770174 nrd=0.546666 
md49 9 11 3 9 penh l=2e-07 w=2.8e-06 
+ as=1.26e-12 ad=3.23473e-12 ps=9e-07 pd=7.14736e-06 
+ nrs=0.160714 nrd=0.412594 
md50 3 11 9 9 penh l=2e-07 w=2.8e-06 
+ as=3.23473e-12 ad=1.26e-12 ps=7.14736e-06 pd=9e-07 
+ nrs=0.412594 nrd=0.160714 
c136 4 8 2.56875e-13
c137 3 4 5.38e-13
c138 11 4 5.33629e-13
c139 2 4 1.28e-13
c140 4 5 2.74375e-13
c141 4 7 3.16623e-13
c142 4 6 3.3484e-13
c143 1 4 8.658e-14
c144 6 9 9.3e-14
c145 2 8 1.782e-14
c146 5 8 1.782e-14
c147 7 9 5.075e-14
c148 11 8 3.56349e-14
c149 6 7 4.47e-14
c150 13 9 4.5e-14
c151 13 6 1.25e-14
c152 3 8 6.7329e-14
c153 1 9 2.1e-14
c154 1 6 1.188e-14
c155 2 11 1.782e-14
c156 11 5 1.782e-14
c157 8 9 1.75e-13
c158 7 8 2.688e-14
c159 3 11 6.2964e-14
c160 10 9 4.725e-14
c161 2 9 7.1073e-14
c162 10 6 1.4375e-14
c163 2 6 1.188e-14
c164 5 9 1.45012e-13
c165 5 6 1.188e-14
c166 11 9 2.19127e-13
c167 4 9 4.26125e-13
c168 11 6 2.532e-14
c169 5 7 5.8076e-14
c170 3 9 4.0625e-14
c171 12 9 4.5e-14
c172 12 6 1.25e-14
.ends Flash3ANDN
.subckt z2xFlash3AND 1 2 3 4 5
+ 6 7 8 9 10 11
+ 12 13
xFlash3ANDN#0 6 4 13 1 5
+ 9 7 10 2 Flash3ANDN
xFlash3ANDS#0 5 8 11 1 3
+ 4 7 12 2 Flash3ANDS
.ends z2xFlash3AND
.subckt FlashUFlo 1 2 3 4 5
+ 6 7 8
md51 8 7 9 8 penh l=1.1e-06 w=5e-07 
+ as=3.47499e-13 ad=4.78289e-13 ps=1.45e-06 pd=1.26316e-06 
+ nrs=1.39 nrd=1.91316 
md52 9 5 8 8 penh l=2e-07 w=1.5e-06 
+ as=1.43487e-12 ad=1.0425e-12 ps=3.78947e-06 pd=4.35e-06 
+ nrs=0.637719 nrd=0.463333 
md53 8 9 7 8 penh l=2e-07 w=2.8e-06 
+ as=1.26e-12 ad=2.67841e-12 ps=9e-07 pd=7.07368e-06 
+ nrs=0.160714 nrd=0.341635 
md54 7 9 8 8 penh l=2e-07 w=2.8e-06 
+ as=2.67841e-12 ad=1.26e-12 ps=7.07368e-06 pd=9e-07 
+ nrs=0.341635 nrd=0.160714 
md55 9 3 10 2 nenh l=2e-07 w=2.8e-06 
+ as=6.99999e-13 ad=1.54e-12 ps=5e-07 pd=4.39999e-06 
+ nrs=0.0892856 nrd=0.196429 
md56 11 5 2 2 nenh l=2e-07 w=3.1e-06 
+ as=3.04745e-12 ad=7.8288e-13 ps=6.88304e-06 pd=6.8305e-07 
+ nrs=0.317113 nrd=0.0814651 
md57 2 9 7 2 nenh l=2e-07 w=1.4e-06 
+ as=6.29999e-13 ad=1.37627e-12 ps=9e-07 pd=3.10847e-06 
+ nrs=0.321428 nrd=0.702178 
md58 7 9 2 2 nenh l=2e-07 w=1.4e-06 
+ as=1.37627e-12 ad=6.29999e-13 ps=3.10847e-06 pd=9e-07 
+ nrs=0.702178 nrd=0.321428 
md59 10 1 11 2 nenh l=2e-07 w=2.8e-06 
+ as=7.07117e-13 ad=6.99999e-13 ps=6.16948e-07 pd=5e-07 
+ nrs=0.0901935 nrd=0.0892856 
c173 2 6 2.8875e-13
c174 2 3 1.83e-13
c175 2 7 5.79e-13
c176 2 4 2.85125e-13
c177 1 2 1.16e-13
c178 2 9 5.51629e-13
c179 2 5 3.16623e-13
c180 5 6 2.688e-14
c181 11 4 1.4375e-14
c182 3 4 1.188e-14
c183 4 5 4.47e-14
c184 1 6 1.782e-14
c185 10 4 1.25e-14
c186 7 9 7.722e-14
c187 4 6 1.782e-14
c188 1 4 1.188e-14
c189 7 8 3.75e-15
c190 11 8 4.725e-14
c191 3 8 1.05125e-13
c192 2 8 3.9725e-13
c193 5 8 5.075e-14
c194 6 9 3.126e-14
c195 1 9 1.5444e-14
c196 10 8 4.5e-14
c197 6 8 1.68125e-13
c198 4 9 4.314e-14
c199 1 8 7.5012e-14
c200 4 8 1.61698e-13
c201 3 5 5.8076e-14
c202 6 7 2.8125e-14
c203 9 8 1.92877e-13
c204 1 3 1.188e-14
.ends FlashUFlo
.subckt z2xFlashANDS 1 2 3 4 5
+ 6 7 8 9 10 11
+ 12
xFlash3ANDN#0 5 4 11 1 8
+ 3 6 9 2 Flash3ANDN
xFlashUFlo#0 8 1 7 4 6
+ 10 12 2 FlashUFlo
.ends z2xFlashANDS
.subckt FlashOneHot 1 2 3 4 5
+ 6 7 8 9 10 11
+ 12 13 14 15 16 17
+ 18 19 20 21 22 23
+ 24 25 26 27 28 29
+ 30 31 32 33 34 35
+ 36 37 38 39 40 41
+ 42 43 44 45 46 47
+ 48 49 50 51 52 53
+ 54 55 56 57 58 59
+ 60 61 62 63 64 65
+ 66 67 68 69 70 71
+ 72 73 74 75 76 77
+ 78 79 80 81 82 83
+ 84 85 86 87 88 89
+ 90 91 92 93 94 95
+ 96 97 98 99 100 101
+ 102 103 104 105 106 107
+ 108 109 110 111 112 113
+ 114 115 116 117 118 119
+ 120 121 122 123 124 125
+ 126 127 128 129 130 131
+ 132 133 134 135 136 137
+ 138 139 140 141 142 143
+ 144 145 146 147 148 149
+ 150 151 152 153 154 155
+ 156 157 158 159 160 161
+ 162 163 164 165 166 167
+ 168 169 170 171 172 173
+ 174 175 176 177 178 179
+ 180 181 182 183 184 185
+ 186 187 188 189 190 191
+ 192 193 194 195 196 197
+ 198 199 200 201 202
xz65xFlashLatch#0 1 2 203 28 204
+ 205 206 29 207 30 31
+ 32 208 209 210 211 212
+ 33 213 214 34 215 216
+ 35 36 37 217 218 38
+ 39 219 220 221 222 40
+ 223 224 225 226 41 227
+ 228 229 42 230 231 43
+ 44 232 46 47 233 48
+ 234 49 50 235 236 51
+ 237 238 52 239 240 241
+ 242 243 53 244 245 246
+ 54 247 55 56 57 58
+ 248 249 250 59 251 252
+ 253 254 60 255 256 257
+ 258 61 259 62 260 261
+ 262 263 63 264 265 266
+ 267 268 269 64 270 271
+ 65 272 273 274 66 67
+ 275 276 277 278 279 280
+ 281 282 68 132 69 72
+ 74 75 77 78 80 83
+ 86 88 154 91 92 94
+ 95 96 97 99 45 100
+ 102 26 105 108 111 113
+ 115 118 119 121 124 125
+ 90 126 127 129 130 131
+ 134 136 141 143 144 283
+ 147 148 150 152 153 156
+ 157 158 160 161 284 163
+ 164 166 168 170 172 177
+ 179 180 181 3 192 193
+ 194 196 198 202 4 285
+ 286 5 287 288 289 290
+ 291 292 293 6 294 295
+ 7 296 8 297 298 299
+ 300 301 9 302 303 10
+ 304 305 306 11 12 13
+ 307 308 309 14 310 311
+ 312 313 15 16 17 314
+ 315 18 316 317 19 318
+ 319 320 321 20 322 323
+ 21 22 324 325 23 24
+ 326 25 327 328 27 329
+ 330 331 332 z65xFlashLatch
xz2xFlashANDN#0 1 2 307 255 266
+ 45 26 162 176 z2xFlashANDN
xz2xFlash3AND#0#0 1 2 217 327 314
+ 246 26 300 290 17 185
+ 10 137 z2xFlash3AND
xz2xFlash3AND#0#1 1 2 246 234 225
+ 270 26 290 211 56 106
+ 63 93 z2xFlash3AND
xz2xFlash3AND#0#2 1 2 270 259 249
+ 310 26 211 241 16 149
+ 34 73 z2xFlash3AND
xz2xFlash3AND#0#3 1 2 310 285 311
+ 305 26 241 287 67 103
+ 68 187 z2xFlash3AND
xz2xFlash3AND#0#4 1 2 305 206 223
+ 219 26 287 208 43 200
+ 55 138 z2xFlash3AND
xz2xFlash3AND#0#5 1 2 219 330 321
+ 247 26 208 297 31 184
+ 15 159 z2xFlash3AND
xz2xFlash3AND#0#6 1 2 247 236 228
+ 271 26 297 215 62 104
+ 66 122 z2xFlash3AND
xz2xFlash3AND#0#7 1 2 271 261 252
+ 316 26 215 244 30 167
+ 44 70 z2xFlash3AND
xz2xFlash3AND#0#8 1 2 316 292 318
+ 308 26 244 295 13 133
+ 8 186 z2xFlash3AND
xz2xFlash3AND#0#9 1 2 308 283 278
+ 218 26 295 272 65 87
+ 64 107 z2xFlash3AND
xz2xFlash3AND#0#10 1 2 218 328 315
+ 329 26 272 291 5 120
+ 60 195 z2xFlash3AND
xz2xFlash3AND#0#11 1 2 329 312 203
+ 235 26 291 317 7 71
+ 25 142 z2xFlash3AND
xz2xFlash3AND#0#12 1 2 235 224 237
+ 260 26 317 226 37 188
+ 29 165 z2xFlash3AND
xz2xFlash3AND#0#13 1 2 260 248 262
+ 306 26 226 250 39 110
+ 52 128 z2xFlash3AND
xz2xFlash3AND#0#14 1 2 306 273 279
+ 220 26 250 274 58 174
+ 6 76 z2xFlash3AND
xz2xFlash3AND#0#15 1 2 220 331 286
+ 204 26 274 298 20 139
+ 12 189 z2xFlash3AND
xz2xFlash3AND#0#16 1 2 204 319 207
+ 238 26 298 322 22 98
+ 38 112 z2xFlash3AND
xz2xFlash3AND#0#17 1 2 238 227 239
+ 263 26 322 229 48 169
+ 41 178 z2xFlash3AND
xz2xFlash3AND#0#18 1 2 263 251 264
+ 309 26 229 253 49 79
+ 59 145 z2xFlash3AND
xz2xFlash3AND#0#19 1 2 309 284 280
+ 288 26 253 275 4 183
+ 21 109 z2xFlash3AND
xz2xFlash3AND#0#20 1 2 288 205 293
+ 209 26 275 302 33 114
+ 27 171 z2xFlash3AND
xz2xFlash3AND#0#21 1 2 209 323 212
+ 240 26 302 324 36 123
+ 50 82 z2xFlash3AND
xz2xFlash3AND#0#22 1 2 240 230 242
+ 265 26 324 231 54 81
+ 3 191 z2xFlash3AND
xz2xFlash3AND#0#23 1 2 265 254 267
+ 313 26 231 256 14 199
+ 9 116 z2xFlash3AND
xz2xFlash3AND#0#24 1 2 313 289 281
+ 294 26 256 276 19 173
+ 35 135 z2xFlash3AND
xz2xFlash3AND#0#25 1 2 294 210 299
+ 213 26 276 304 42 84
+ 40 89 z2xFlash3AND
xz2xFlash3AND#0#26 1 2 213 325 216
+ 243 26 304 326 47 146
+ 57 201 z2xFlash3AND
xz2xFlash3AND#0#27 1 2 243 232 245
+ 268 26 326 233 61 101
+ 18 175 z2xFlash3AND
xz2xFlash3AND#0#28 1 2 268 257 269
+ 320 26 233 258 28 197
+ 24 85 z2xFlash3AND
xz2xFlash3AND#0#29 1 2 320 296 282
+ 301 26 258 277 32 151
+ 46 155 z2xFlash3AND
xz2xFlash3AND#0#30 1 2 301 214 303
+ 266 26 277 307 53 190
+ 51 117 z2xFlash3AND
xz2xFlashANDS#0 1 2 300 332 217
+ 26 221 222 11 23 140
+ 182
+ z2xFlashANDS
.ends FlashOneHot
.subckt ConvertLatch 1 2 3 4 5
+ 6 7 8
md60 8 4 2 8 penh l=2e-07 w=2.1e-06 
+ as=9.44999e-13 ad=2.00973e-12 ps=9e-07 pd=4.6421e-06 
+ nrs=0.214286 nrd=0.455722 
md61 2 4 8 8 penh l=2e-07 w=2.1e-06 
+ as=2.00973e-12 ad=9.44999e-13 ps=4.6421e-06 pd=9e-07 
+ nrs=0.455722 nrd=0.214286 
md62 9 2 8 8 penh l=2e-07 w=1.4e-06 
+ as=1.33982e-12 ad=5.59999e-13 ps=3.09473e-06 pd=1.66666e-06 
+ nrs=0.683583 nrd=0.285714 
md63 10 11 8 8 penh l=2e-07 w=2.7e-06 
+ as=2.77534e-12 ad=9.87803e-13 ps=6.41052e-06 pd=1.28049e-06 
+ nrs=0.330005 nrd=0.158049 
md64 1 12 8 8 penh l=2e-07 w=2.7e-06 
+ as=2.77534e-12 ad=1.01e-12 ps=6.41052e-06 pd=2.9e-06 
+ nrs=0.330005 nrd=0.1616 
md65 11 4 9 3 nenh l=2e-07 w=7e-07 
+ as=3.15e-13 ad=5.59999e-13 ps=9e-07 pd=2.3e-06 
+ nrs=0.642857 nrd=1.14286 
md66 9 2 3 3 nenh l=2e-07 w=7e-07 
+ as=1.498e-12 ad=3.15e-13 ps=3.18e-06 pd=9e-07 
+ nrs=3.05714 nrd=0.642857 
md67 11 5 9 8 penh l=2e-07 w=7e-07 
+ as=2.8e-13 ad=5.59999e-13 ps=8.33332e-07 pd=2.3e-06 
+ nrs=0.571428 nrd=1.14286 
md68 10 11 3 3 nenh l=2e-07 w=1.4e-06 
+ as=2.99599e-12 ad=6.29999e-13 ps=6.35999e-06 pd=9e-07 
+ nrs=1.52857 nrd=0.321428 
md69 1 12 3 3 nenh l=2e-07 w=1.4e-06 
+ as=2.99599e-12 ad=1.12e-12 ps=6.35999e-06 pd=3e-06 
+ nrs=1.52857 nrd=0.571428 
md70 12 6 10 3 nenh l=2e-07 w=1.4e-06 
+ as=6.29999e-13 ad=1.12e-12 ps=9e-07 pd=3e-06 
+ nrs=0.321428 nrd=0.571428 
md71 10 7 12 8 penh l=2e-07 w=1.6e-06 
+ as=8.29999e-13 ad=6.32194e-13 ps=3.2e-06 pd=8.19511e-07 
+ nrs=0.324219 nrd=0.246951 
c205 3 4 5.39025e-13
c206 1 3 4.18752e-13
c207 12 3 1.6275e-13
c208 10 3 6.2502e-14
c209 3 6 1.54199e-13
c210 3 7 3.48318e-13
c211 11 3 3.57875e-13
c212 3 5 1.58431e-13
c213 9 3 4.375e-14
c214 2 3 9.54e-13
c215 2 4 5.8512e-14
c216 12 10 2.0625e-14
c217 12 7 9.504e-15
c218 12 8 2.875e-14
c219 6 7 4.5e-15
c220 5 8 3.75e-14
c221 12 11 4.752e-15
c222 1 8 1.4725e-13
c223 10 7 1.188e-14
c224 12 2 1.188e-14
c225 6 8 2.1e-14
c226 2 5 3.75e-15
c227 11 6 6.75e-15
c228 1 2 3.75e-14
c229 2 6 1.5e-14
c230 9 5 4.5e-15
c231 7 8 8.7528e-14
c232 1 4 3.87599e-14
c233 11 7 6.75e-15
c234 2 7 1.5e-14
c235 4 8 1.57877e-13
c236 2 8 1.20625e-13
c237 11 4 1.5e-14
c238 3 8 3.06e-13
c239 11 2 5.7024e-14
c240 12 1 1.188e-14
.ends ConvertLatch
.subckt z2xConvertLatch 1 2 3 4 5
+ 6 7 8 9 10
xConvertLatch#0 4 7 1 5 3
+ 6 9 2 ConvertLatch
xConvertLatch#1 8 10 1 5 3
+ 6 9 2 ConvertLatch
.ends z2xConvertLatch
.subckt z7xConvertLatch 1 2 3 4 5
+ 6 7 8 9 10 11
+ 12 13 14 15 16 17
+ 18 19 20
xz2xConvertLatch#0#0 1 2 4 7 3
+ 5 9 16 6 12 z2xConvertLatch
xz2xConvertLatch#0#1 1 2 4 10 3
+ 5 15 17 6 18 z2xConvertLatch
xz2xConvertLatch#0#2 1 2 4 11 3
+ 5 14 8 6 19 z2xConvertLatch
xConvertLatch#0 13 20 1 3 4
+ 5 6 2 ConvertLatch
.ends z7xConvertLatch
.subckt AtoDRtgW 1 2 3 4 5
c241 1 4 8.37177e-11
c242 2 4 2.99996e-12
c243 3 4 2.71743e-12
c244 1 3 1.92e-12
c245 1 2 2.4e-13
c246 2 3 3.2e-14
.ends AtoDRtgW
.subckt CDLabels 1 2 3 4 5
+ 6 7 8 9 10 11
+ 12 13 14 15 16 17
+ 18 19 20 21 22 23
+ 24 25 26 27 28 29
+ 30 31 32 33 34 35
+ 36 37 38 39 40 41
+ 42 43 44 45 46 47
+ 48 49 50 51 52 53
+ 54 55 56 57 58 59
+ 60 61 62 63 64 65
+ 66 67 68 69 70 71
+ 72 73 74 75 76 77
+ 78 79 80 81 82 83
+ 84 85 86 87 88 89
+ 90 91 92 93 94 95
+ 96 97 98 99 100 101
+ 102 103 104 105 106 107
+ 108 109 110 111 112 113
+ 114 115 116 117 118 119
+ 120 121 122 123 124 125
+ 126 127 128 129 130 131
+ 132 133 134 135 136 137
+ 138 139 140 141 142 143
+ 144 145 146 147 148 149
+ 150 151 152 153 154 155
+ 156 157 158 159 160 161
+ 162 163 164 165 166 167
c247 1 99 3.0625e-14
c248 99 166 3.0625e-14
c249 99 101 2.1875e-14
c250 99 103 2.1875e-14
c251 35 99 3.0625e-14
c252 9 99 3.0625e-14
c253 46 99 3.0625e-14
c254 99 114 2.1875e-14
c255 99 125 2.1875e-14
c256 57 99 3.0625e-14
c257 20 99 3.0625e-14
c258 68 99 3.0625e-14
c259 99 136 2.1875e-14
c260 99 147 2.1875e-14
c261 79 99 3.0625e-14
c262 31 99 3.0625e-14
c263 90 99 3.0625e-14
c264 99 158 2.1875e-14
c265 99 162 2.1875e-14
c266 95 99 3.0625e-14
c267 3 99 3.0625e-14
c268 96 99 3.0625e-14
c269 99 163 2.1875e-14
c270 99 164 2.1875e-14
c271 97 99 3.0625e-14
c272 4 99 3.0625e-14
c273 98 99 3.0625e-14
c274 99 165 2.1875e-14
c275 99 104 2.1875e-14
c276 36 99 3.0625e-14
c277 5 99 3.0625e-14
c278 37 99 3.0625e-14
c279 99 105 2.1875e-14
c280 99 106 2.1875e-14
c281 38 99 3.0625e-14
c282 6 99 3.0625e-14
c283 39 99 3.0625e-14
c284 99 107 2.1875e-14
c285 99 108 2.1875e-14
c286 40 99 3.0625e-14
c287 7 99 3.0625e-14
c288 41 99 3.0625e-14
c289 99 109 2.1875e-14
c290 99 110 2.1875e-14
c291 42 99 3.0625e-14
c292 8 99 3.0625e-14
c293 43 99 3.0625e-14
c294 99 111 2.1875e-14
c295 99 112 2.1875e-14
c296 44 99 3.0625e-14
c297 10 99 3.0625e-14
c298 45 99 3.0625e-14
c299 99 113 2.1875e-14
c300 99 115 2.1875e-14
c301 47 99 3.0625e-14
c302 11 99 3.0625e-14
c303 48 99 3.0625e-14
c304 99 116 2.1875e-14
c305 99 117 2.1875e-14
c306 49 99 3.0625e-14
c307 12 99 3.0625e-14
c308 50 99 3.0625e-14
c309 99 118 2.1875e-14
c310 99 119 2.1875e-14
c311 51 99 3.0625e-14
c312 13 99 3.0625e-14
c313 52 99 3.0625e-14
c314 99 120 2.1875e-14
c315 99 121 2.1875e-14
c316 53 99 3.0625e-14
c317 14 99 3.0625e-14
c318 54 99 3.0625e-14
c319 99 122 2.1875e-14
c320 99 123 2.1875e-14
c321 55 99 3.0625e-14
c322 15 99 3.0625e-14
c323 56 99 3.0625e-14
c324 99 124 2.1875e-14
c325 99 126 2.1875e-14
c326 58 99 3.0625e-14
c327 16 99 3.0625e-14
c328 59 99 3.0625e-14
c329 99 127 2.1875e-14
c330 99 128 2.1875e-14
c331 60 99 3.0625e-14
c332 17 99 3.0625e-14
c333 61 99 3.0625e-14
c334 99 129 2.1875e-14
c335 99 130 2.1875e-14
c336 62 99 3.0625e-14
c337 18 99 3.0625e-14
c338 63 99 3.0625e-14
c339 99 131 2.1875e-14
c340 99 132 2.1875e-14
c341 64 99 3.0625e-14
c342 19 99 3.0625e-14
c343 65 99 3.0625e-14
c344 99 133 2.1875e-14
c345 99 134 2.1875e-14
c346 66 99 3.0625e-14
c347 21 99 3.0625e-14
c348 67 99 3.0625e-14
c349 99 135 2.1875e-14
c350 99 137 2.1875e-14
c351 69 99 3.0625e-14
c352 22 99 3.0625e-14
c353 70 99 3.0625e-14
c354 99 138 2.1875e-14
c355 99 139 2.1875e-14
c356 71 99 3.0625e-14
c357 23 99 3.0625e-14
c358 72 99 3.0625e-14
c359 99 140 2.1875e-14
c360 99 141 2.1875e-14
c361 73 99 3.0625e-14
c362 24 99 3.0625e-14
c363 74 99 3.0625e-14
c364 99 142 2.1875e-14
c365 99 143 2.1875e-14
c366 75 99 3.0625e-14
c367 25 99 3.0625e-14
c368 76 99 3.0625e-14
c369 99 144 2.1875e-14
c370 99 145 2.1875e-14
c371 77 99 3.0625e-14
c372 26 99 3.0625e-14
c373 78 99 3.0625e-14
c374 99 146 2.1875e-14
c375 99 148 2.1875e-14
c376 80 99 3.0625e-14
c377 27 99 3.0625e-14
c378 81 99 3.0625e-14
c379 99 149 2.1875e-14
c380 99 150 2.1875e-14
c381 82 99 3.0625e-14
c382 28 99 3.0625e-14
c383 83 99 3.0625e-14
c384 99 151 2.1875e-14
c385 99 152 2.1875e-14
c386 84 99 3.0625e-14
c387 29 99 3.0625e-14
c388 85 99 3.0625e-14
c389 99 153 2.1875e-14
c390 99 154 2.1875e-14
c391 86 99 3.0625e-14
c392 30 99 3.0625e-14
c393 87 99 3.0625e-14
c394 99 155 2.1875e-14
c395 99 156 2.1875e-14
c396 88 99 3.0625e-14
c397 32 99 3.0625e-14
c398 89 99 3.0625e-14
c399 99 157 2.1875e-14
c400 99 159 2.1875e-14
c401 91 99 3.0625e-14
c402 33 99 3.0625e-14
c403 92 99 3.0625e-14
c404 99 160 2.1875e-14
c405 99 161 2.1875e-14
c406 93 99 3.0625e-14
c407 34 99 3.0625e-14
c408 94 99 3.0625e-14
c409 99 102 2.1875e-14
c410 99 100 3.0625e-14
c411 2 99 3.0625e-14
.ends CDLabels
.subckt ConvertDecode1 1 2 3 4 5
+ 6
md72 1 2 3 5 nenh l=2e-07 w=2.5e-06 
+ as=1.125e-12 ad=2e-12 ps=9e-07 pd=4.1e-06 
+ nrs=0.18 nrd=0.32 
md73 3 2 1 5 nenh l=2e-07 w=2.5e-06 
+ as=2e-12 ad=1.125e-12 ps=4.1e-06 pd=9e-07 
+ nrs=0.32 nrd=0.18 
c412 4 5 9.0625e-14
c413 3 5 1.66707e-13
c414 1 5 1.18125e-13
c415 2 5 1.99e-13
c416 2 3 2.975e-14
c417 1 3 2.45e-14
c418 3 4 1.75e-14
.ends ConvertDecode1
.subckt ConvertDecode0 1 2 3 4 5
+ 6
c419 4 5 1.33224e-13
c420 3 5 1.26875e-13
c421 2 5 9.0625e-14
c422 1 5 6.5625e-14
c423 1 4 2.45e-14
c424 3 4 2.45e-14
c425 2 4 1.75e-14
.ends ConvertDecode0
.subckt ConvertDecode 1 2 3 4 5
+ 6 7 8 9 10 11
+ 12 13 14 15 16 17
+ 18 19 20 21 22 23
+ 24 25 26 27 28 29
+ 30 31 32 33 34 35
+ 36 37 38 39 40 41
+ 42 43 44 45 46 47
+ 48 49 50 51 52 53
+ 54 55 56 57 58 59
+ 60 61 62 63 64 65
+ 66 67 68 69 70 71
+ 72 73 74 75 76 77
+ 78 79 80 81 82 83
+ 84 85 86 87 88 89
+ 90 91 92 93 94 95
+ 96 97 98 99 100 101
+ 102 103 104 105 106 107
+ 108 109 110 111 112 113
+ 114 115 116 117 118 119
+ 120 121 122 123 124 125
+ 126 127 128 129 130 131
+ 132 133 134 135 136 137
+ 138 139 140
xCDLables#0 1 1 1 1 1
+ 1 1 1 1 1 1