pc_frame.sp SPICE FILE
.model nenh nmos
+ level = 2
+   vto = 0.803734   kp = 3.87e-05   gamma = 0.9193
+   phi = 0.6
+
+   pb = 0.75   cgso = 5.19091e-10   cgdo = 5.19091e-10
+   rsh = 15.96   cj = 0.0003825
+   mj = 0.464   cjsw = 0.0005839   mjsw = 0.3118
+   tox = 4.54e-08   nsub = 1.44995e+16
+   nss = 1e+12   nfs = 3.82944e+12   tpg = 1
+   xj = 4e-07   ld = 6.825e-07   uo = 508.827
+   ucrit = 217557   uexp = 0.167006
+   vmax = 66268.4   neff = 1.001
+
+   delta = 2.93638
.model penh pmos
+ level = 2
+   vto = -0.947595   kp = 1.3992e-05   gamma = 0.3871
+   phi = 0.6
+
+   pb = 0.7   cgso = 5.63965e-10   cgdo = 5.63965e-10
+   rsh = 31.01   cj = 0.0001408
+   mj = 0.4225   cjsw = 0.0004904   mjsw = 0.2505
+   tox = 4.54e-08   nsub = 2.57089e+15
+   nss = 1e+12   nfs = 1e+12   tpg = -1
+   xj = 4e-07   ld = 7.415e-07   uo = 183.967
+   ucrit = 112257   uexp = 0.235616
+   vmax = 33779.2   neff = 1.001
+
+   delta = 0.0126418
m1 1 4 3 1 penh l=3e-06 w=7.5e-05 
+ as=0 ad=0 ps=0 pd=0 
m1 4 6 5 1 penh l=3e-06 w=3e-05 
+ as=0 ad=0 ps=0 pd=0 
m1 0 4 3 0 nenh l=3e-06 w=7.5e-05 
+ as=0 ad=0 ps=0 pd=0 
m1 4 7 5 0 nenh l=3e-06 w=3e-05 
+ as=0 ad=0 ps=0 pd=0 
m1 1 9 8 1 penh l=3e-06 w=7.5e-05 
+ as=0 ad=0 ps=0 pd=0 
m1 8 10 1 1 penh l=3e-06 w=7.5e-05 
+ as=0 ad=0 ps=0 pd=0 
m1 1 10 8 1 penh l=3e-06 w=7.5e-05 
+ as=0 ad=0 ps=0 pd=0 
m1 8 12 11 1 penh l=3e-06 w=7.5e-05 
+ as=0 ad=0 ps=0 pd=0 
m1 11 12 8 1 penh l=3e-06 w=7.5e-05 
+ as=0 ad=0 ps=0 pd=0 
m1 8 9 1 1 penh l=3e-06 w=7.5e-05 
+ as=0 ad=0 ps=0 pd=0 
m1 1 8 5 1 penh l=3e-06 w=7.5e-05 
+ as=0 ad=0 ps=0 pd=0 
m1 5 8 1 1 penh l=3e-06 w=7.5e-05 
+ as=0 ad=0 ps=0 pd=0 
m1 1 8 5 1 penh l=3e-06 w=7.5e-05 
+ as=0 ad=0 ps=0 pd=0 
m1 5 8 1 1 penh l=3e-06 w=7.5e-05 
+ as=0 ad=0 ps=0 pd=0 
m1 0 9 11 0 nenh l=3e-06 w=7.5e-05 
+ as=0 ad=0 ps=0 pd=0 
m1 11 10 8 0 nenh l=3e-06 w=7.5e-05 
+ as=0 ad=0 ps=0 pd=0 
m1 8 10 11 0 nenh l=3e-06 w=7.5e-05 
+ as=0 ad=0 ps=0 pd=0 
m1 11 12 0 0 nenh l=3e-06 w=7.5e-05 
+ as=0 ad=0 ps=0 pd=0 
m1 0 12 11 0 nenh l=3e-06 w=7.5e-05 
+ as=0 ad=0 ps=0 pd=0 
m1 11 9 0 0 nenh l=3e-06 w=7.5e-05 
+ as=0 ad=0 ps=0 pd=0 
m1 0 11 5 0 nenh l=3e-06 w=7.5e-05 
+ as=0 ad=0 ps=0 pd=0 
m1 5 11 0 0 nenh l=3e-06 w=7.5e-05 
+ as=0 ad=0 ps=0 pd=0 
m1 0 11 5 0 nenh l=3e-06 w=7.5e-05 
+ as=0 ad=0 ps=0 pd=0 
m1 5 11 0 0 nenh l=3e-06 w=7.5e-05 
+ as=0 ad=0 ps=0 pd=0 
m1 1 14 13 1 penh l=3e-06 w=7.5e-05 
+ as=0 ad=0 ps=0 pd=0 
m1 14 6 15 1 penh l=3e-06 w=3e-05 
+ as=0 ad=0 ps=0 pd=0 
m1 0 14 13 0 nenh l=3e-06 w=7.5e-05 
+ as=0 ad=0 ps=0 pd=0 
m1 14 7 15 0 nenh l=3e-06 w=3e-05 
+ as=0 ad=0 ps=0 pd=0 
m1 1 17 16 1 penh l=3e-06 w=7.5e-05 
+ as=0 ad=0 ps=0 pd=0 
m1 16 10 1 1 penh l=3e-06 w=7.5e-05 
+ as=0 ad=0 ps=0 pd=0 
m1 1 10 16 1 penh l=3e-06 w=7.5e-05 
+ as=0 ad=0 ps=0 pd=0 
m1 16 12 18 1 penh l=3e-06 w=7.5e-05 
+ as=0 ad=0 ps=0 pd=0 
m1 18 12 16 1 penh l=3e-06 w=7.5e-05 
+ as=0 ad=0 ps=0 pd=0 
m1 16 17 1 1 penh l=3e-06 w=7.5e-05 
+ as=0 ad=0 ps=0 pd=0 
m1 1 16 15 1 penh l=3e-06 w=7.5e-05 
+ as=0 ad=0 ps=0 pd=0 
m1 15 16 1 1 penh l=3e-06 w=7.5e-05 
+ as=0 ad=0 ps=0 pd=0 
m1 1 16 15 1 penh l=3e-06 w=7.5e-05 
+ as=0 ad=0 ps=0 pd=0 
m1 15 16 1 1 penh l=3e-06 w=7.5e-05 
+ as=0 ad=0 ps=0 pd=0 
m1 0 17 18 0 nenh l=3e-06 w=7.5e-05 
+ as=0 ad=0 ps=0 pd=0 
m1 18 10 16 0 nenh l=3e-06 w=7.5e-05 
+ as=0 ad=0 ps=0 pd=0 
m1 16 10 18 0 nenh l=3e-06 w=7.5e-05 
+ as=0 ad=0 ps=0 pd=0 
m1 18 12 0 0 nenh l=3e-06 w=7.5e-05 
+ as=0 ad=0 ps=0 pd=0 
m1 0 12 18 0 nenh l=3e-06 w=7.5e-05 
+ as=0 ad=0 ps=0 pd=0 
m1 18 17 0 0 nenh l=3e-06 w=7.5e-05 
+ as=0 ad=0 ps=0 pd=0 
m1 0 18 15 0 nenh l=3e-06 w=7.5e-05 
+ as=0 ad=0 ps=0 pd=0 
m1 15 18 0 0 nenh l=3e-06 w=7.5e-05 
+ as=0 ad=0 ps=0 pd=0 
m1 0 18 15 0 nenh l=3e-06 w=7.5e-05 
+ as=0 ad=0 ps=0 pd=0 
m1 15 18 0 0 nenh l=3e-06 w=7.5e-05 
+ as=0 ad=0 ps=0 pd=0 
m1 1 20 19 1 penh l=3e-06 w=7.5e-05 
+ as=0 ad=0 ps=0 pd=0 
m1 20 6 21 1 penh l=3e-06 w=3e-05 
+ as=0 ad=0 ps=0 pd=0 
m1 0 20 19 0 nenh l=3e-06 w=7.5e-05 
+ as=0 ad=0 ps=0 pd=0 
m1 20 7 21 0 nenh l=3e-06 w=3e-05 
+ as=0 ad=0 ps=0 pd=0 
m1 1 23 22 1 penh l=3e-06 w=7.5e-05 
+ as=0 ad=0 ps=0 pd=0 
m1 22 10 1 1 penh l=3e-06 w=7.5e-05 
+ as=0 ad=0 ps=0 pd=0 
m1 1 10 22 1 penh l=3e-06 w=7.5e-05 
+ as=0 ad=0 ps=0 pd=0 
m1 22 12 24 1 penh l=3e-06 w=7.5e-05 
+ as=0 ad=0 ps=0 pd=0 
m1 24 12 22 1 penh l=3e-06 w=7.5e-05 
+ as=0 ad=0 ps=0 pd=0 
m1 22 23 1 1 penh l=3e-06 w=7.5e-05 
+ as=0 ad=0 ps=0 pd=0 
m1 1 22 21 1 penh l=3e-06 w=7.5e-05 
+ as=0 ad=0 ps=0 pd=0 
m1 21 22 1 1 penh l=3e-06 w=7.5e-05 
+ as=0 ad=0 ps=0 pd=0 
m1 1 22 21 1 penh l=3e-06 w=7.5e-05 
+ as=0 ad=0 ps=0 pd=0 
m1 21 22 1 1 penh l=3e-06 w=7.5e-05 
+ as=0 ad=0 ps=0 pd=0 
m1 0 23 24 0 nenh l=3e-06 w=7.5e-05 
+ as=0 ad=0 ps=0 pd=0 
m1 24 10 22 0 nenh l=3e-06 w=7.5e-05 
+ as=0 ad=0 ps=0 pd=0 
m1 22 10 24 0 nenh l=3e-06 w=7.5e-05 
+ as=0 ad=0 ps=0 pd=0 
m1 24 12 0 0 nenh l=3e-06 w=7.5e-05 
+ as=0 ad=0 ps=0 pd=0 
m1 0 12 24 0 nenh l=3e-06 w=7.5e-05 
+ as=0 ad=0 ps=0 pd=0 
m1 24 23 0 0 nenh l=3e-06 w=7.5e-05 
+ as=0 ad=0 ps=0 pd=0 
m1 0 24 21 0 nenh l=3e-06 w=7.5e-05 
+ as=0 ad=0 ps=0 pd=0 
m1 21 24 0 0 nenh l=3e-06 w=7.5e-05 
+ as=0 ad=0 ps=0 pd=0 
m1 0 24 21 0 nenh l=3e-06 w=7.5e-05 
+ as=0 ad=0 ps=0 pd=0 
m1 21 24 0 0 nenh l=3e-06 w=7.5e-05 
+ as=0 ad=0 ps=0 pd=0 
m1 1 26 25 1 penh l=3e-06 w=7.5e-05 
+ as=0 ad=0 ps=0 pd=0 
m1 26 6 27 1 penh l=3e-06 w=3e-05 
+ as=0 ad=0 ps=0 pd=0 
m1 0 26 25 0 nenh l=3e-06 w=7.5e-05 
+ as=0 ad=0 ps=0 pd=0 
m1 26 7 27 0 nenh l=3e-06 w=3e-05 
+ as=0 ad=0 ps=0 pd=0 
m1 1 29 28 1 penh l=3e-06 w=7.5e-05 
+ as=0 ad=0 ps=0 pd=0 
m1 28 10 1 1 penh l=3e-06 w=7.5e-05 
+ as=0 ad=0 ps=0 pd=0 
m1 1 10 28 1 penh l=3e-06 w=7.5e-05 
+ as=0 ad=0 ps=0 pd=0 
m1 28 12 30 1 penh l=3e-06 w=7.5e-05 
+ as=0 ad=0 ps=0 pd=0 
m1 30 12 28 1 penh l=3e-06 w=7.5e-05 
+ as=0 ad=0 ps=0 pd=0 
m1 28 29 1 1 penh l=3e-06 w=7.5e-05 
+ as=0 ad=0 ps=0 pd=0 
m1 1 28 27 1 penh l=3e-06 w=7.5e-05 
+ as=0 ad=0 ps=0 pd=0 
m1 27 28 1 1 penh l=3e-06 w=7.5e-05 
+ as=0 ad=0 ps=0 pd=0 
m1 1 28 27 1 penh l=3e-06 w=7.5e-05 
+ as=0 ad=0 ps=0 pd=0 
m1 27 28 1 1 penh l=3e-06 w=7.5e-05 
+ as=0 ad=0 ps=0 pd=0 
m1 0 29 30 0 nenh l=3e-06 w=7.5e-05 
+ as=0 ad=0 ps=0 pd=0 
m1 30 10 28 0 nenh l=3e-06 w=7.5e-05 
+ as=0 ad=0 ps=0 pd=0 
m1 28 10 30 0 nenh l=3e-06 w=7.5e-05 
+ as=0 ad=0 ps=0 pd=0 
m1 30 12 0 0 nenh l=3e-06 w=7.5e-05 
+ as=0 ad=0 ps=0 pd=0 
m1 0 12 30 0 nenh l=3e-06 w=7.5e-05 
+ as=0 ad=0 ps=0 pd=0 
m1 30 29 0 0 nenh l=3e-06 w=7.5e-05 
+ as=0 ad=0 ps=0 pd=0 
m1 0 30 27 0 nenh l=3e-06 w=7.5e-05 
+ as=0 ad=0 ps=0 pd=0 
m1 27 30 0 0 nenh l=3e-06 w=7.5e-05 
+ as=0 ad=0 ps=0 pd=0 
m1 0 30 27 0 nenh l=3e-06 w=7.5e-05 
+ as=0 ad=0 ps=0 pd=0 
m1 27 30 0 0 nenh l=3e-06 w=7.5e-05 
+ as=0 ad=0 ps=0 pd=0 
m1 1 32 31 1 penh l=3e-06 w=7.5e-05 
+ as=0 ad=0 ps=0 pd=0 
m1 32 6 33 1 penh l=3e-06 w=3e-05 
+ as=0 ad=0 ps=0 pd=0 
m1 0 32 31 0 nenh l=3e-06 w=7.5e-05 
+ as=0 ad=0 ps=0 pd=0 
m1 32 7 33 0 nenh l=3e-06 w=3e-05 
+ as=0 ad=0 ps=0 pd=0 
m1 1 35 34 1 penh l=3e-06 w=7.5e-05 
+ as=0 ad=0 ps=0 pd=0 
m1 34 10 1 1 penh l=3e-06 w=7.5e-05 
+ as=0 ad=0 ps=0 pd=0 
m1 1 10 34 1 penh l=3e-06 w=7.5e-05 
+ as=0 ad=0 ps=0 pd=0 
m1 34 12 36 1 penh l=3e-06 w=7.5e-05 
+ as=0 ad=0 ps=0 pd=0 
m1 36 12 34 1 penh l=3e-06 w=7.5e-05 
+ as=0 ad=0 ps=0 pd=0 
m1 34 35 1 1 penh l=3e-06 w=7.5e-05 
+ as=0 ad=0 ps=0 pd=0 
m1 1 34 33 1 penh l=3e-06 w=7.5e-05 
+ as=0 ad=0 ps=0 pd=0 
m1 33 34 1 1 penh l=3e-06 w=7.5e-05 
+ as=0 ad=0 ps=0 pd=0 
m1 1 34 33 1 penh l=3e-06 w=7.5e-05 
+ as=0 ad=0 ps=0 pd=0 
m1 33 34 1 1 penh l=3e-06 w=7.5e-05 
+ as=0 ad=0 ps=0 pd=0 
m1 0 35 36 0 nenh l=3e-06 w=7.5e-05 
+ as=0 ad=0 ps=0 pd=0 
m1 36 10 34 0 nenh l=3e-06 w=7.5e-05 
+ as=0 ad=0 ps=0 pd=0 
m1 34 10 36 0 nenh l=3e-06 w=7.5e-05 
+ as=0 ad=0 ps=0 pd=0 
m1 36 12 0 0 nenh l=3e-06 w=7.5e-05 
+ as=0 ad=0 ps=0 pd=0 
m1 0 12 36 0 nenh l=3e-06 w=7.5e-05 
+ as=0 ad=0 ps=0 pd=0 
m1 36 35 0 0 nenh l=3e-06 w=7.5e-05 
+ as=0 ad=0 ps=0 pd=0 
m1 0 36 33 0 nenh l=3e-06 w=7.5e-05 
+ as=0 ad=0 ps=0 pd=0 
m1 33 36 0 0 nenh l=3e-06 w=7.5e-05 
+ as=0 ad=0 ps=0 pd=0 
m1 0 36 33 0 nenh l=3e-06 w=7.5e-05 
+ as=0 ad=0 ps=0 pd=0 
m1 33 36 0 0 nenh l=3e-06 w=7.5e-05 
+ as=0 ad=0 ps=0 pd=0 
m1 1 38 37 1 penh l=3e-06 w=7.5e-05 
+ as=0 ad=0 ps=0 pd=0 
m1 38 6 39 1 penh l=3e-06 w=3e-05 
+ as=0 ad=0 ps=0 pd=0 
m1 0 38 37 0 nenh l=3e-06 w=7.5e-05 
+ as=0 ad=0 ps=0 pd=0 
m1 38 7 39 0 nenh l=3e-06 w=3e-05 
+ as=0 ad=0 ps=0 pd=0 
m1 1 41 40 1 penh l=3e-06 w=7.5e-05 
+ as=0 ad=0 ps=0 pd=0 
m1 40 10 1 1 penh l=3e-06 w=7.5e-05 
+ as=0 ad=0 ps=0 pd=0 
m1 1 10 40 1 penh l=3e-06 w=7.5e-05 
+ as=0 ad=0 ps=0 pd=0 
m1 40 12 42 1 penh l=3e-06 w=7.5e-05 
+ as=0 ad=0 ps=0 pd=0 
m1 42 12 40 1 penh l=3e-06 w=7.5e-05 
+ as=0 ad=0 ps=0 pd=0 
m1 40 41 1 1 penh l=3e-06 w=7.5e-05 
+ as=0 ad=0 ps=0 pd=0 
m1 1 40 39 1 penh l=3e-06 w=7.5e-05 
+ as=0 ad=0 ps=0 pd=0 
m1 39 40 1 1 penh l=3e-06 w=7.5e-05 
+ as=0 ad=0 ps=0 pd=0 
m1 1 40 39 1 penh l=3e-06 w=7.5e-05 
+ as=0 ad=0 ps=0 pd=0 
m1 39 40 1 1 penh l=3e-06 w=7.5e-05 
+ as=0 ad=0 ps=0 pd=0 
m1 0 41 42 0 nenh l=3e-06 w=7.5e-05 
+ as=0 ad=0 ps=0 pd=0 
m1 42 10 40 0 nenh l=3e-06 w=7.5e-05 
+ as=0 ad=0 ps=0 pd=0 
m1 40 10 42 0 nenh l=3e-06 w=7.5e-05 
+ as=0 ad=0 ps=0 pd=0 
m1 42 12 0 0 nenh l=3e-06 w=7.5e-05 
+ as=0 ad=0 ps=0 pd=0 
m1 0 12 42 0 nenh l=3e-06 w=7.5e-05 
+ as=0 ad=0 ps=0 pd=0 
m1 42 41 0 0 nenh l=3e-06 w=7.5e-05 
+ as=0 ad=0 ps=0 pd=0 
m1 0 42 39 0 nenh l=3e-06 w=7.5e-05 
+ as=0 ad=0 ps=0 pd=0 
m1 39 42 0 0 nenh l=3e-06 w=7.5e-05 
+ as=0 ad=0 ps=0 pd=0 
m1 0 42 39 0 nenh l=3e-06 w=7.5e-05 
+ as=0 ad=0 ps=0 pd=0 
m1 39 42 0 0 nenh l=3e-06 w=7.5e-05 
+ as=0 ad=0 ps=0 pd=0 
m1 1 44 43 1 penh l=3e-06 w=7.5e-05 
+ as=0 ad=0 ps=0 pd=0 
m1 44 6 45 1 penh l=3e-06 w=3e-05 
+ as=0 ad=0 ps=0 pd=0 
m1 0 44 43 0 nenh l=3e-06 w=7.5e-05 
+ as=0 ad=0 ps=0 pd=0 
m1 44 7 45 0 nenh l=3e-06 w=3e-05 
+ as=0 ad=0 ps=0 pd=0 
m1 1 47 46 1 penh l=3e-06 w=7.5e-05 
+ as=0 ad=0 ps=0 pd=0 
m1 46 10 1 1 penh l=3e-06 w=7.5e-05 
+ as=0 ad=0 ps=0 pd=0 
m1 1 10 46 1 penh l=3e-06 w=7.5e-05 
+ as=0 ad=0 ps=0 pd=0 
m1 46 12 48 1 penh l=3e-06 w=7.5e-05 
+ as=0 ad=0 ps=0 pd=0 
m1 48 12 46 1 penh l=3e-06 w=7.5e-05 
+ as=0 ad=0 ps=0 pd=0 
m1 46 47 1 1 penh l=3e-06 w=7.5e-05 
+ as=0 ad=0 ps=0 pd=0 
m1 1 46 45 1 penh l=3e-06 w=7.5e-05 
+ as=0 ad=0 ps=0 pd=0 
m1 45 46 1 1 penh l=3e-06 w=7.5e-05 
+ as=0 ad=0 ps=0 pd=0 
m1 1 46 45 1 penh l=3e-06 w=7.5e-05 
+ as=0 ad=0 ps=0 pd=0 
m1 45 46 1 1 penh l=3e-06 w=7.5e-05 
+ as=0 ad=0 ps=0 pd=0 
m1 0 47 48 0 nenh l=3e-06 w=7.5e-05 
+ as=0 ad=0 ps=0 pd=0 
m1 48 10 46 0 nenh l=3e-06 w=7.5e-05 
+ as=0 ad=0 ps=0 pd=0 
m1 46 10 48 0 nenh l=3e-06 w=7.5e-05 
+ as=0 ad=0 ps=0 pd=0 
m1 48 12 0 0 nenh l=3e-06 w=7.5e-05 
+ as=0 ad=0 ps=0 pd=0 
m1 0 12 48 0 nenh l=3e-06 w=7.5e-05 
+ as=0 ad=0 ps=0 pd=0 
m1 48 47 0 0 nenh l=3e-06 w=7.5e-05 
+ as=0 ad=0 ps=0 pd=0 
m1 0 48 45 0 nenh l=3e-06 w=7.5e-05 
+ as=0 ad=0 ps=0 pd=0 
m1 45 48 0 0 nenh l=3e-06 w=7.5e-05 
+ as=0 ad=0 ps=0 pd=0 
m1 0 48 45 0 nenh l=3e-06 w=7.5e-05 
+ as=0 ad=0 ps=0 pd=0 
m1 45 48 0 0 nenh l=3e-06 w=7.5e-05 
+ as=0 ad=0 ps=0 pd=0 
m1 1 50 49 1 penh l=3e-06 w=7.5e-05 
+ as=0 ad=0 ps=0 pd=0 
m1 50 6 51 1 penh l=3e-06 w=3e-05 
+ as=0 ad=0 ps=0 pd=0 
m1 0 50 49 0 nenh l=3e-06 w=7.5e-05 
+ as=0 ad=0 ps=0 pd=0 
m1 50 7 51 0 nenh l=3e-06 w=3e-05 
+ as=0 ad=0 ps=0 pd=0 
m1 1 53 52 1 penh l=3e-06 w=7.5e-05 
+ as=0 ad=0 ps=0 pd=0 
m1 52 10 1 1 penh l=3e-06 w=7.5e-05 
+ as=0 ad=0 ps=0 pd=0 
m1 1 10 52 1 penh l=3e-06 w=7.5e-05 
+ as=0 ad=0 ps=0 pd=0 
m1 52 12 54 1 penh l=3e-06 w=7.5e-05 
+ as=0 ad=0 ps=0 pd=0 
m1 54 12 52 1 penh l=3e-06 w=7.5e-05 
+ as=0 ad=0 ps=0 pd=0 
m1 52 53 1 1 penh l=3e-06 w=7.5e-05 
+ as=0 ad=0 ps=0 pd=0 
m1 1 52 51 1 penh l=3e-06 w=7.5e-05 
+ as=0 ad=0 ps=0 pd=0 
m1 51 52 1 1 penh l=3e-06 w=7.5e-05 
+ as=0 ad=0 ps=0 pd=0 
m1 1 52 51 1 penh l=3e-06 w=7.5e-05 
+ as=0 ad=0 ps=0 pd=0 
m1 51 52 1 1 penh l=3e-06 w=7.5e-05 
+ as=0 ad=0 ps=0 pd=0 
m1 0 53 54 0 nenh l=3e-06 w=7.5e-05 
+ as=0 ad=0 ps=0 pd=0 
m1 54 10 52 0 nenh l=3e-06 w=7.5e-05 
+ as=0 ad=0 ps=0 pd=0 
m1 52 10 54 0 nenh l=3e-06 w=7.5e-05 
+ as=0 ad=0 ps=0 pd=0 
m1 54 12 0 0 nenh l=3e-06 w=7.5e-05 
+ as=0 ad=0 ps=0 pd=0 
m1 0 12 54 0 nenh l=3e-06 w=7.5e-05 
+ as=0 ad=0 ps=0 pd=0 
m1 54 53 0 0 nenh l=3e-06 w=7.5e-05 
+ as=0 ad=0 ps=0 pd=0 
m1 0 54 51 0 nenh l=3e-06 w=7.5e-05 
+ as=0 ad=0 ps=0 pd=0 
m1 51 54 0 0 nenh l=3e-06 w=7.5e-05 
+ as=0 ad=0 ps=0 pd=0 
m1 0 54 51 0 nenh l=3e-06 w=7.5e-05 
+ as=0 ad=0 ps=0 pd=0 
m1 51 54 0 0 nenh l=3e-06 w=7.5e-05 
+ as=0 ad=0 ps=0 pd=0 
m1 1 56 55 1 penh l=3e-06 w=7.5e-05 
+ as=0 ad=0 ps=0 pd=0 
m1 56 6 57 1 penh l=3e-06 w=3e-05 
+ as=0 ad=0 ps=0 pd=0 
m1 0 56 55 0 nenh l=3e-06 w=7.5e-05 
+ as=0 ad=0 ps=0 pd=0 
m1 56 7 57 0 nenh l=3e-06 w=3e-05 
+ as=0 ad=0 ps=0 pd=0 
m1 1 59 58 1 penh l=3e-06 w=7.5e-05 
+ as=0 ad=0 ps=0 pd=0 
m1 58 10 1 1 penh l=3e-06 w=7.5e-05 
+ as=0 ad=0 ps=0 pd=0 
m1 1 10 58 1 penh l=3e-06 w=7.5e-05 
+ as=0 ad=0 ps=0 pd=0 
m1 58 12 60 1 penh l=3e-06 w=7.5e-05 
+ as=0 ad=0 ps=0 pd=0 
m1 60 12 58 1 penh l=3e-06 w=7.5e-05 
+ as=0 ad=0 ps=0 pd=0 
m1 58 59 1 1 penh l=3e-06 w=7.5e-05 
+ as=0 ad=0 ps=0 pd=0 
m1 1 58 57 1 penh l=3e-06 w=7.5e-05 
+ as=0 ad=0 ps=0 pd=0 
m1 57 58 1 1 penh l=3e-06 w=7.5e-05 
+ as=0 ad=0 ps=0 pd=0 
m1 1 58 57 1 penh l=3e-06 w=7.5e-05 
+ as=0 ad=0 ps=0 pd=0 
m1 57 58 1 1 penh l=3e-06 w=7.5e-05 
+ as=0 ad=0 ps=0 pd=0 
m1 0 59 60 0 nenh l=3e-06 w=7.5e-05 
+ as=0 ad=0 ps=0 pd=0 
m1 60 10 58 0 nenh l=3e-06 w=7.5e-05 
+ as=0 ad=0 ps=0 pd=0 
m1 58 10 60 0 nenh l=3e-06 w=7.5e-05 
+ as=0 ad=0 ps=0 pd=0 
m1 60 12 0 0 nenh l=3e-06 w=7.5e-05 
+ as=0 ad=0 ps=0 pd=0 
m1 0 12 60 0 nenh l=3e-06 w=7.5e-05 
+ as=0 ad=0 ps=0 pd=0 
m1 60 59 0 0 nenh l=3e-06 w=7.5e-05 
+ as=0 ad=0 ps=0 pd=0 
m1 0 60 57 0 nenh l=3e-06 w=7.5e-05 
+ as=0 ad=0 ps=0 pd=0 
m1 57 60 0 0 nenh l=3e-06 w=7.5e-05 
+ as=0 ad=0 ps=0 pd=0 
m1 0 60 57 0 nenh l=3e-06 w=7.5e-05 
+ as=0 ad=0 ps=0 pd=0 
m1 57 60 0 0 nenh l=3e-06 w=7.5e-05 
+ as=0 ad=0 ps=0 pd=0 
m1 1 62 61 1 penh l=3e-06 w=7.5e-05 
+ as=0 ad=0 ps=0 pd=0 
m1 62 6 63 1 penh l=3e-06 w=3e-05 
+ as=0 ad=0 ps=0 pd=0 
m1 0 62 61 0 nenh l=3e-06 w=7.5e-05 
+ as=0 ad=0 ps=0 pd=0 
m1 62 7 63 0 nenh l=3e-06 w=3e-05 
+ as=0 ad=0 ps=0 pd=0 
m1 1 65 64 1 penh l=3e-06 w=7.5e-05 
+ as=0 ad=0 ps=0 pd=0 
m1 64 10 1 1 penh l=3e-06 w=7.5e-05 
+ as=0 ad=0 ps=0 pd=0 
m1 1 10 64 1 penh l=3e-06 w=7.5e-05 
+ as=0 ad=0 ps=0 pd=0 
m1 64 12 66 1 penh l=3e-06 w=7.5e-05 
+ as=0 ad=0 ps=0 pd=0 
m1 66 12 64 1 penh l=3e-06 w=7.5e-05 
+ as=0 ad=0 ps=0 pd=0 
m1 64 65 1 1 penh l=3e-06 w=7.5e-05 
+ as=0 ad=0 ps=0 pd=0 
m1 1 64 63 1 penh l=3e-06 w=7.5e-05 
+ as=0 ad=0 ps=0 pd=0 
m1 63 64 1 1 penh l=3e-06 w=7.5e-05 
+ as=0 ad=0 ps=0 pd=0 
m1 1 64 63 1 penh l=3e-06 w=7.5e-05 
+ as=0 ad=0 ps=0 pd=0 
m1 63 64 1 1 penh l=3e-06 w=7.5e-05 
+ as=0 ad=0 ps=0 pd=0 
m1 0 65 66 0 nenh l=3e-06 w=7.5e-05 
+ as=0 ad=0 ps=0 pd=0 
m1 66 10 64 0 nenh l=3e-06 w=7.5e-05 
+ as=0 ad=0 ps=0 pd=0 
m1 64 10 66 0 nenh l=3e-06 w=7.5e-05 
+ as=0 ad=0 ps=0 pd=0 
m1 66 12 0 0 nenh l=3e-06 w=7.5e-05 
+ as=0 ad=0 ps=0 pd=0 
m1 0 12 66 0 nenh l=3e-06 w=7.5e-05 
+ as=0 ad=0 ps=0 pd=0 
m1 66 65 0 0 nenh l=3e-06 w=7.5e-05 
+ as=0 ad=0 ps=0 pd=0 
m1 0 66 63 0 nenh l=3e-06 w=7.5e-05 
+ as=0 ad=0 ps=0 pd=0 
m1 63 66 0 0 nenh l=3e-06 w=7.5e-05 
+ as=0 ad=0 ps=0 pd=0 
m1 0 66 63 0 nenh l=3e-06 w=7.5e-05 
+ as=0 ad=0 ps=0 pd=0 
m1 63 66 0 0 nenh l=3e-06 w=7.5e-05 
+ as=0 ad=0 ps=0 pd=0 
m1 1 68 67 1 penh l=3e-06 w=7.5e-05 
+ as=0 ad=0 ps=0 pd=0 
m1 68 6 69 1 penh l=3e-06 w=3e-05 
+ as=0 ad=0 ps=0 pd=0 
m1 0 68 67 0 nenh l=3e-06 w=7.5e-05 
+ as=0 ad=0 ps=0 pd=0 
m1 68 7 69 0 nenh l=3e-06 w=3e-05 
+ as=0 ad=0 ps=0 pd=0 
m1 1 71 70 1 penh l=3e-06 w=7.5e-05 
+ as=0 ad=0 ps=0 pd=0 
m1 70 10 1 1 penh l=3e-06 w=7.5e-05 
+ as=0 ad=0 ps=0 pd=0 
m1 1 10 70 1 penh l=3e-06 w=7.5e-05 
+ as=0 ad=0 ps=0 pd=0 
m1 70 12 72 1 penh l=3e-06 w=7.5e-05 
+ as=0 ad=0 ps=0 pd=0 
m1 72 12 70 1 penh l=3e-06 w=7.5e-05 
+ as=0 ad=0 ps=0 pd=0 
m1 70 71 1 1 penh l=3e-06 w=7.5e-05 
+ as=0 ad=0 ps=0 pd=0 
m1 1 70 69 1 penh l=3e-06 w=7.5e-05 
+ as=0 ad=0 ps=0 pd=0 
m1 69 70 1 1 penh l=3e-06 w=7.5e-05 
+ as=0 ad=0 ps=0 pd=0 
m1 1 70 69 1 penh l=3e-06 w=7.5e-05 
+ as=0 ad=0 ps=0 pd=0 
m1 69 70 1 1 penh l=3e-06 w=7.5e-05 
+ as=0 ad=0 ps=0 pd=0 
m1 0 71 72 0 nenh l=3e-06 w=7.5e-05 
+ as=0 ad=0 ps=0 pd=0 
m1 72 10 70 0 nenh l=3e-06 w=7.5e-05 
+ as=0 ad=0 ps=0 pd=0 
m1 70 10 72 0 nenh l=3e-06 w=7.5e-05 
+ as=0 ad=0 ps=0 pd=0 
m1 72 12 0 0 nenh l=3e-06 w=7.5e-05 
+ as=0 ad=0 ps=0 pd=0 
m1 0 12 72 0 nenh l=3e-06 w=7.5e-05 
+ as=0 ad=0 ps=0 pd=0 
m1 72 71 0 0 nenh l=3e-06 w=7.5e-05 
+ as=0 ad=0 ps=0 pd=0 
m1 0 72 69 0 nenh l=3e-06 w=7.5e-05 
+ as=0 ad=0 ps=0 pd=0 
m1 69 72 0 0 nenh l=3e-06 w=7.5e-05 
+ as=0 ad=0 ps=0 pd=0 
m1 0 72 69 0 nenh l=3e-06 w=7.5e-05 
+ as=0 ad=0 ps=0 pd=0 
m1 69 72 0 0 nenh l=3e-06 w=7.5e-05 
+ as=0 ad=0 ps=0 pd=0 
m1 1 74 73 1 penh l=3e-06 w=7.5e-05 
+ as=0 ad=0 ps=0 pd=0 
m1 74 6 75 1 penh l=3e-06 w=3e-05 
+ as=0 ad=0 ps=0 pd=0 
m1 0 74 73 0 nenh l=3e-06 w=7.5e-05 
+ as=0 ad=0 ps=0 pd=0 
m1 74 7 75 0 nenh l=3e-06 w=3e-05 
+ as=0 ad=0 ps=0 pd=0 
m1 1 77 76 1 penh l=3e-06 w=7.5e-05 
+ as=0 ad=0 ps=0 pd=0 
m1 76 10 1 1 penh l=3e-06 w=7.5e-05 
+ as=0 ad=0 ps=0 pd=0 
m1 1 10 76 1 penh l=3e-06 w=7.5e-05 
+ as=0 ad=0 ps=0 pd=0 
m1 76 12 78 1 penh l=3e-06 w=7.5e-05 
+ as=0 ad=0 ps=0 pd=0 
m1 78 12 76 1 penh l=3e-06 w=7.5e-05 
+ as=0 ad=0 ps=0 pd=0 
m1 76 77 1 1 penh l=3e-06 w=7.5e-05 
+ as=0 ad=0 ps=0 pd=0 
m1 1 76 75 1 penh l=3e-06 w=7.5e-05 
+ as=0 ad=0 ps=0 pd=0 
m1 75 76 1 1 penh l=3e-06 w=7.5e-05 
+ as=0 ad=0 ps=0 pd=0 
m1 1 76 75 1 penh l=3e-06 w=7.5e-05 
+ as=0 ad=0 ps=0 pd=0 
m1 75 76 1 1 penh l=3e-06 w=7.5e-05 
+ as=0 ad=0 ps=0 pd=0 
m1 0 77 78 0 nenh l=3e-06 w=7.5e-05 
+ as=0 ad=0 ps=0 pd=0 
m1 78 10 76 0 nenh l=3e-06 w=7.5e-05 
+ as=0 ad=0 ps=0 pd=0 
m1 76 10 78 0 nenh l=3e-06 w=7.5e-05 
+ as=0 ad=0 ps=0 pd=0 
m1 78 12 0 0 nenh l=3e-06 w=7.5e-05 
+ as=0 ad=0 ps=0 pd=0 
m1 0 12 78 0 nenh l=3e-06 w=7.5e-05 
+ as=0 ad=0 ps=0 pd=0 
m1 78 77 0 0 nenh l=3e-06 w=7.5e-05 
+ as=0 ad=0 ps=0 pd=0 
m1 0 78 75 0 nenh l=3e-06 w=7.5e-05 
+ as=0 ad=0 ps=0 pd=0 
m1 75 78 0 0 nenh l=3e-06 w=7.5e-05 
+ as=0 ad=0 ps=0 pd=0 
m1 0 78 75 0 nenh l=3e-06 w=7.5e-05 
+ as=0 ad=0 ps=0 pd=0 
m1 75 78 0 0 nenh l=3e-06 w=7.5e-05 
+ as=0 ad=0 ps=0 pd=0 
m1 1 80 79 1 penh l=3e-06 w=7.5e-05 
+ as=0 ad=0 ps=0 pd=0 
m1 80 6 81 1 penh l=3e-06 w=3e-05 
+ as=0 ad=0 ps=0 pd=0 
m1 0 80 79 0 nenh l=3e-06 w=7.5e-05 
+ as=0 ad=0 ps=0 pd=0 
m1 80 7 81 0 nenh l=3e-06 w=3e-05 
+ as=0 ad=0 ps=0 pd=0 
m1 1 83 82 1 penh l=3e-06 w=7.5e-05 
+ as=0 ad=0 ps=0 pd=0 
m1 82 10 1 1 penh l=3e-06 w=7.5e-05 
+ as=0 ad=0 ps=0 pd=0 
m1 1 10 82 1 penh l=3e-06 w=7.5e-05 
+ as=0 ad=0 ps=0 pd=0 
m1 82 12 84 1 penh l=3e-06 w=7.5e-05 
+ as=0 ad=0 ps=0 pd=0 
m1 84 12 82 1 penh l=3e-06 w=7.5e-05 
+ as=0 ad=0 ps=0 pd=0 
m1 82 83 1 1 penh l=3e-06 w=7.5e-05 
+ as=0 ad=0 ps=0 pd=0 
m1 1 82 81 1 penh l=3e-06 w=7.5e-05 
+ as=0 ad=0 ps=0 pd=0 
m1 81 82 1 1 penh l=3e-06 w=7.5e-05 
+ as=0 ad=0 ps=0 pd=0 
m1 1 82 81 1 penh l=3e-06 w=7.5e-05 
+ as=0 ad=0 ps=0 pd=0 
m1 81 82 1 1 penh l=3e-06 w=7.5e-05 
+ as=0 ad=0 ps=0 pd=0 
m1 0 83 84 0 nenh l=3e-06 w=7.5e-05 
+ as=0 ad=0 ps=0 pd=0 
m1 84 10 82 0 nenh l=3e-06 w=7.5e-05 
+ as=0 ad=0 ps=0 pd=0 
m1 82 10 84 0 nenh l=3e-06 w=7.5e-05 
+ as=0 ad=0 ps=0 pd=0 
m1 84 12 0 0 nenh l=3e-06 w=7.5e-05 
+ as=0 ad=0 ps=0 pd=0 
m1 0 12 84 0 nenh l=3e-06 w=7.5e-05 
+ as=0 ad=0 ps=0 pd=0 
m1 84 83 0 0 nenh l=3e-06 w=7.5e-05 
+ as=0 ad=0 ps=0 pd=0 
m1 0 84 81 0 nenh l=3e-06 w=7.5e-05 
+ as=0 ad=0 ps=0 pd=0 
m1 81 84 0 0 nenh l=3e-06 w=7.5e-05 
+ as=0 ad=0 ps=0 pd=0 
m1 0 84 81 0 nenh l=3e-06 w=7.5e-05 
+ as=0 ad=0 ps=0 pd=0 
m1 81 84 0 0 nenh l=3e-06 w=7.5e-05 
+ as=0 ad=0 ps=0 pd=0 
m1 1 86 85 1 penh l=3e-06 w=7.5e-05 
+ as=0 ad=0 ps=0 pd=0 
m1 86 6 87 1 penh l=3e-06 w=3e-05 
+ as=0 ad=0 ps=0 pd=0 
m1 0 86 85 0 nenh l=3e-06 w=7.5e-05 
+ as=0 ad=0 ps=0 pd=0 
m1 86 7 87 0 nenh l=3e-06 w=3e-05 
+ as=0 ad=0 ps=0 pd=0 
m1 1 89 88 1 penh l=3e-06 w=7.5e-05 
+ as=0 ad=0 ps=0 pd=0 
m1 88 10 1 1 penh l=3e-06 w=7.5e-05 
+ as=0 ad=0 ps=0 pd=0 
m1 1 10 88 1 penh l=3e-06 w=7.5e-05 
+ as=0 ad=0 ps=0 pd=0 
m1 88 12 90 1 penh l=3e-06 w=7.5e-05 
+ as=0 ad=0 ps=0 pd=0 
m1 90 12 88 1 penh l=3e-06 w=7.5e-05 
+ as=0 ad=0 ps=0 pd=0 
m1 88 89 1 1 penh l=3e-06 w=7.5e-05 
+ as=0 ad=0 ps=0 pd=0 
m1 1 88 87 1 penh l=3e-06 w=7.5e-05 
+ as=0 ad=0 ps=0 pd=0 
m1 87 88 1 1 penh l=3e-06 w=7.5e-05 
+ as=0 ad=0 ps=0 pd=0 
m1 1 88 87 1 penh l=3e-06 w=7.5e-05 
+ as=0 ad=0 ps=0 pd=0 
m1 87 88 1 1 penh l=3e-06 w=7.5e-05 
+ as=0 ad=0 ps=0 pd=0 
m1 0 89 90 0 nenh l=3e-06 w=7.5e-05 
+ as=0 ad=0 ps=0 pd=0 
m1 90 10 88 0 nenh l=3e-06 w=7.5e-05 
+ as=0 ad=0 ps=0 pd=0 
m1 88 10 90 0 nenh l=3e-06 w=7.5e-05 
+ as=0 ad=0 ps=0 pd=0 
m1 90 12 0 0 nenh l=3e-06 w=7.5e-05 
+ as=0 ad=0 ps=0 pd=0 
m1 0 12 90 0 nenh l=3e-06 w=7.5e-05 
+ as=0 ad=0 ps=0 pd=0 
m1 90 89 0 0 nenh l=3e-06 w=7.5e-05 
+ as=0 ad=0 ps=0 pd=0 
m1 0 90 87 0 nenh l=3e-06 w=7.5e-05 
+ as=0 ad=0 ps=0 pd=0 
m1 87 90 0 0 nenh l=3e-06 w=7.5e-05 
+ as=0 ad=0 ps=0 pd=0 
m1 0 90 87 0 nenh l=3e-06 w=7.5e-05 
+ as=0 ad=0 ps=0 pd=0 
m1 87 90 0 0 nenh l=3e-06 w=7.5e-05 
+ as=0 ad=0 ps=0 pd=0 
m1 1 92 91 1 penh l=3e-06 w=7.5e-05 
+ as=0 ad=0 ps=0 pd=0 
m1 92 6 93 1 penh l=3e-06 w=3e-05 
+ as=0 ad=0 ps=0 pd=0 
m1 0 92 91 0 nenh l=3e-06 w=7.5e-05 
+ as=0 ad=0 ps=0 pd=0 
m1 92 7 93 0 nenh l=3e-06 w=3e-05 
+ as=0 ad=0 ps=0 pd=0 
m1 1 95 94 1 penh l=3e-06 w=7.5e-05 
+ as=0 ad=0 ps=0 pd=0 
m1 94 10 1 1 penh l=3e-06 w=7.5e-05 
+ as=0 ad=0 ps=0 pd=0 
m1 1 10 94 1 penh l=3e-06 w=7.5e-05 
+ as=0 ad=0 ps=0 pd=0 
m1 94 12 96 1 penh l=3e-06 w=7.5e-05 
+ as=0 ad=0 ps=0 pd=0 
m1 96 12 94 1 penh l=3e-06 w=7.5e-05 
+ as=0 ad=0 ps=0 pd=0 
m1 94 95 1 1 penh l=3e-06 w=7.5e-05 
+ as=0 ad=0 ps=0 pd=0 
m1 1 94 93 1 penh l=3e-06 w=7.5e-05 
+ as=0 ad=0 ps=0 pd=0 
m1 93 94 1 1 penh l=3e-06 w=7.5e-05 
+ as=0 ad=0 ps=0 pd=0 
m1 1 94 93 1 penh l=3e-06 w=7.5e-05 
+ as=0 ad=0 ps=0 pd=0 
m1 93 94 1 1 penh l=3e-06 w=7.5e-05 
+ as=0 ad=0 ps=0 pd=0 
m1 0 95 96 0 nenh l=3e-06 w=7.5e-05 
+ as=0 ad=0 ps=0 pd=0 
m1 96 10 94 0 nenh l=3e-06 w=7.5e-05 
+ as=0 ad=0 ps=0 pd=0 
m1 94 10 96 0 nenh l=3e-06 w=7.5e-05 
+ as=0 ad=0 ps=0 pd=0 
m1 96 12 0 0 nenh l=3e-06 w=7.5e-05 
+ as=0 ad=0 ps=0 pd=0 
m1 0 12 96 0 nenh l=3e-06 w=7.5e-05 
+ as=0 ad=0 ps=0 pd=0 
m1 96 95 0 0 nenh l=3e-06 w=7.5e-05 
+ as=0 ad=0 ps=0 pd=0 
m1 0 96 93 0 nenh l=3e-06 w=7.5e-05 
+ as=0 ad=0 ps=0 pd=0 
m1 93 96 0 0 nenh l=3e-06 w=7.5e-05 
+ as=0 ad=0 ps=0 pd=0 
m1 0 96 93 0 nenh l=3e-06 w=7.5e-05 
+ as=0 ad=0 ps=0 pd=0 
m1 93 96 0 0 nenh l=3e-06 w=7.5e-05 
+ as=0 ad=0 ps=0 pd=0 
m1 1 98 97 1 penh l=3e-06 w=7.5e-05 
+ as=0 ad=0 ps=0 pd=0 
m1 98 6 99 1 penh l=3e-06 w=3e-05 
+ as=0 ad=0 ps=0 pd=0 
m1 0 98 97 0 nenh l=3e-06 w=7.5e-05 
+ as=0 ad=0 ps=0 pd=0 
m1 98 7 99 0 nenh l=3e-06 w=3e-05 
+ as=0 ad=0 ps=0 pd=0 
m1 1 101 100 1 penh l=3e-06 w=7.5e-05 
+ as=0 ad=0 ps=0 pd=0 
m1 100 10 1 1 penh l=3e-06 w=7.5e-05 
+ as=0 ad=0 ps=0 pd=0 
m1 1 10 100 1 penh l=3e-06 w=7.5e-05 
+ as=0 ad=0 ps=0 pd=0 
m1 100 12 102 1 penh l=3e-06 w=7.5e-05 
+ as=0 ad=0 ps=0 pd=0 
m1 102 12 100 1 penh l=3e-06 w=7.5e-05 
+ as=0 ad=0 ps=0 pd=0 
m1 100 101 1 1 penh l=3e-06 w=7.5e-05 
+ as=0 ad=0 ps=0 pd=0 
m1 1 100 99 1 penh l=3e-06 w=7.5e-05 
+ as=0 ad=0 ps=0 pd=0 
m1 99 100 1 1 penh l=3e-06 w=7.5e-05 
+ as=0 ad=0 ps=0 pd=0 
m1 1 100 99 1 penh l=3e-06 w=7.5e-05 
+ as=0 ad=0 ps=0 pd=0 
m1 99 100 1 1 penh l=3e-06 w=7.5e-05 
+ as=0 ad=0 ps=0 pd=0 
m1 0 101 102 0 nenh l=3e-06 w=7.5e-05 
+ as=0 ad=0 ps=0 pd=0 
m1 102 10 100 0 nenh l=3e-06 w=7.5e-05 
+ as=0 ad=0 ps=0 pd=0 
m1 100 10 102 0 nenh l=3e-06 w=7.5e-05 
+ as=0 ad=0 ps=0 pd=0 
m1 102 12 0 0 nenh l=3e-06 w=7.5e-05 
+ as=0 ad=0 ps=0 pd=0 
m1 0 12 102 0 nenh l=3e-06 w=7.5e-05 
+ as=0 ad=0 ps=0 pd=0 
m1 102 101 0 0 nenh l=3e-06 w=7.5e-05 
+ as=0 ad=0 ps=0 pd=0 
m1 0 102 99 0 nenh l=3e-06 w=7.5e-05 
+ as=0 ad=0 ps=0 pd=0 
m1 99 102 0 0 nenh l=3e-06 w=7.5e-05 
+ as=0 ad=0 ps=0 pd=0 
m1 0 102 99 0 nenh l=3e-06 w=7.5e-05 
+ as=0 ad=0 ps=0 pd=0 
m1 99 102 0 0 nenh l=3e-06 w=7.5e-05 
+ as=0 ad=0 ps=0 pd=0 
m1 1 104 103 1 penh l=3e-06 w=7.5e-05 
+ as=0 ad=0 ps=0 pd=0 
m1 104 6 105 1 penh l=3e-06 w=3e-05 
+ as=0 ad=0 ps=0 pd=0 
m1 0 104 103 0 nenh l=3e-06 w=7.5e-05 
+ as=0 ad=0 ps=0 pd=0 
m1 104 7 105 0 nenh l=3e-06 w=3e-05 
+ as=0 ad=0 ps=0 pd=0 
m1 1 107 106 1 penh l=3e-06 w=7.5e-05 
+ as=0 ad=0 ps=0 pd=0 
m1 106 10 1 1 penh l=3e-06 w=7.5e-05 
+ as=0 ad=0 ps=0 pd=0 
m1 1 10 106 1 penh l=3e-06 w=7.5e-05 
+ as=0 ad=0 ps=0 pd=0 
m1 106 12 108 1 penh l=3e-06 w=7.5e-05 
+ as=0 ad=0 ps=0 pd=0 
m1 108 12 106 1 penh l=3e-06 w=7.5e-05 
+ as=0 ad=0 ps=0 pd=0 
m1 106 107 1 1 penh l=3e-06 w=7.5e-05 
+ as=0 ad=0 ps=0 pd=0 
m1 1 106 105 1 penh l=3e-06 w=7.5e-05 
+ as=0 ad=0 ps=0 pd=0 
m1 105 106 1 1 penh l=3e-06 w=7.5e-05 
+ as=0 ad=0 ps=0 pd=0 
m1 1 106 105 1 penh l=3e-06 w=7.5e-05 
+ as=0 ad=0 ps=0 pd=0 
m1 105 106 1 1 penh l=3e-06 w=7.5e-05 
+ as=0 ad=0 ps=0 pd=0 
m1 0 107 108 0 nenh l=3e-06 w=7.5e-05 
+ as=0 ad=0 ps=0 pd=0 
m1 108 10 106 0 nenh l=3e-06 w=7.5e-05 
+ as=0 ad=0 ps=0 pd=0 
m1 106 10 108 0 nenh l=3e-06 w=7.5e-05 
+ as=0 ad=0 ps=0 pd=0 
m1 108 12 0 0 nenh l=3e-06 w=7.5e-05 
+ as=0 ad=0 ps=0 pd=0 
m1 0 12 108 0 nenh l=3e-06 w=7.5e-05 
+ as=0 ad=0 ps=0 pd=0 
m1 108 107 0 0 nenh l=3e-06 w=7.5e-05 
+ as=0 ad=0 ps=0 pd=0 
m1 0 108 105 0 nenh l=3e-06 w=7.5e-05 
+ as=0 ad=0 ps=0 pd=0 
m1 105 108 0 0 nenh l=3e-06 w=7.5e-05 
+ as=0 ad=0 ps=0 pd=0 
m1 0 108 105 0 nenh l=3e-06 w=7.5e-05 
+ as=0 ad=0 ps=0 pd=0 
m1 105 108 0 0 nenh l=3e-06 w=7.5e-05 
+ as=0 ad=0 ps=0 pd=0 
m1 1 110 109 1 penh l=3e-06 w=7.5e-05 
+ as=0 ad=0 ps=0 pd=0 
m1 110 6 111 1 penh l=3e-06 w=3e-05 
+ as=0 ad=0 ps=0 pd=0 
m1 0 110 109 0 nenh l=3e-06 w=7.5e-05 
+ as=0 ad=0 ps=0 pd=0 
m1 110 7 111 0 nenh l=3e-06 w=3e-05 
+ as=0 ad=0 ps=0 pd=0 
m1 1 113 112 1 penh l=3e-06 w=7.5e-05 
+ as=0 ad=0 ps=0 pd=0 
m1 112 10 1 1 penh l=3e-06 w=7.5e-05 
+ as=0 ad=0 ps=0 pd=0 
m1 1 10 112 1 penh l=3e-06 w=7.5e-05 
+ as=0 ad=0 ps=0 pd=0 
m1 112 12 114 1 penh l=3e-06 w=7.5e-05 
+ as=0 ad=0 ps=0 pd=0 
m1 114 12 112 1 penh l=3e-06 w=7.5e-05 
+ as=0 ad=0 ps=0 pd=0 
m1 112 113 1 1 penh l=3e-06 w=7.5e-05 
+ as=0 ad=0 ps=0 pd=0 
m1 1 112 111 1 penh l=3e-06 w=7.5e-05 
+ as=0 ad=0 ps=0 pd=0 
m1 111 112 1 1 penh l=3e-06 w=7.5e-05 
+ as=0 ad=0 ps=0 pd=0 
m1 1 112 111 1 penh l=3e-06 w=7.5e-05 
+ as=0 ad=0 ps=0 pd=0 
m1 111 112 1 1 penh l=3e-06 w=7.5e-05 
+ as=0 ad=0 ps=0 pd=0 
m1 0 113 114 0 nenh l=3e-06 w=7.5e-05 
+ as=0 ad=0 ps=0 pd=0 
m1 114 10 112 0 nenh l=3e-06 w=7.5e-05 
+ as=0 ad=0 ps=0 pd=0 
m1 112 10 114 0 nenh l=3e-06 w=7.5e-05 
+ as=0 ad=0 ps=0 pd=0 
m1 114 12 0 0 nenh l=3e-06 w=7.5e-05 
+ as=0 ad=0 ps=0 pd=0 
m1 0 12 114 0 nenh l=3e-06 w=7.5e-05 
+ as=0 ad=0 ps=0 pd=0 
m1 114 113 0 0 nenh l=3e-06 w=7.5e-05 
+ as=0 ad=0 ps=0 pd=0 
m1 0 114 111 0 nenh l=3e-06 w=7.5e-05 
+ as=0 ad=0 ps=0 pd=0 
m1 111 114 0 0 nenh l=3e-06 w=7.5e-05 
+ as=0 ad=0 ps=0 pd=0 
m1 0 114 111 0 nenh l=3e-06 w=7.5e-05 
+ as=0 ad=0 ps=0 pd=0 
m1 111 114 0 0 nenh l=3e-06 w=7.5e-05 
+ as=0 ad=0 ps=0 pd=0 
m1 1 116 115 1 penh l=3e-06 w=7.5e-05 
+ as=0 ad=0 ps=0 pd=0 
m1 116 6 117 1 penh l=3e-06 w=3e-05 
+ as=0 ad=0 ps=0 pd=0 
m1 0 116 115 0 nenh l=3e-06 w=7.5e-05 
+ as=0 ad=0 ps=0 pd=0 
m1 116 7 117 0 nenh l=3e-06 w=3e-05 
+ as=0 ad=0 ps=0 pd=0 
m1 1 119 118 1 penh l=3e-06 w=7.5e-05 
+ as=0 ad=0 ps=0 pd=0 
m1 118 10 1 1 penh l=3e-06 w=7.5e-05 
+ as=0 ad=0 ps=0 pd=0 
m1 1 10 118 1 penh l=3e-06 w=7.5e-05 
+ as=0 ad=0 ps=0 pd=0 
m1 118 12 120 1 penh l=3e-06 w=7.5e-05 
+ as=0 ad=0 ps=0 pd=0 
m1 120 12 118 1 penh l=3e-06 w=7.5e-05 
+ as=0 ad=0 ps=0 pd=0 
m1 118 119 1 1 penh l=3e-06 w=7.5e-05 
+ as=0 ad=0 ps=0 pd=0 
m1 1 118 117 1 penh l=3e-06 w=7.5e-05 
+ as=0 ad=0 ps=0 pd=0 
m1 117 118 1 1 penh l=3e-06 w=7.5e-05 
+ as=0 ad=0 ps=0 pd=0 
m1 1 118 117 1 penh l=3e-06 w=7.5e-05 
+ as=0 ad=0 ps=0 pd=0 
m1 117 118 1 1 penh l=3e-06 w=7.5e-05 
+ as=0 ad=0 ps=0 pd=0 
m1 0 119 120 0 nenh l=3e-06 w=7.5e-05 
+ as=0 ad=0 ps=0 pd=0 
m1 120 10 118 0 nenh l=3e-06 w=7.5e-05 
+ as=0 ad=0 ps=0 pd=0 
m1 118 10 120 0 nenh l=3e-06 w=7.5e-05 
+ as=0 ad=0 ps=0 pd=0 
m1 120 12 0 0 nenh l=3e-06 w=7.5e-05 
+ as=0 ad=0 ps=0 pd=0 
m1 0 12 120 0 nenh l=3e-06 w=7.5e-05 
+ as=0 ad=0 ps=0 pd=0 
m1 120 119 0 0 nenh l=3e-06 w=7.5e-05 
+ as=0 ad=0 ps=0 pd=0 
m1 0 120 117 0 nenh l=3e-06 w=7.5e-05 
+ as=0 ad=0 ps=0 pd=0 
m1 117 120 0 0 nenh l=3e-06 w=7.5e-05 
+ as=0 ad=0 ps=0 pd=0 
m1 0 120 117 0 nenh l=3e-06 w=7.5e-05 
+ as=0 ad=0 ps=0 pd=0 
m1 117 120 0 0 nenh l=3e-06 w=7.5e-05 
+ as=0 ad=0 ps=0 pd=0 
m1 1 122 121 1 penh l=3e-06 w=7.5e-05 
+ as=0 ad=0 ps=0 pd=0 
m1 121 122 1 1 penh l=3e-06 w=7.5e-05 
+ as=0 ad=0 ps=0 pd=0 
m1 1 122 121 1 penh l=3e-06 w=7.5e-05 
+ as=0 ad=0 ps=0 pd=0 
m1 121 122 1 1 penh l=3e-06 w=7.5e-05 
+ as=0 ad=0 ps=0 pd=0 
m1 1 123 122 1 penh l=3e-06 w=7.5e-05 
+ as=0 ad=0 ps=0 pd=0 
m1 122 123 1 1 penh l=3e-06 w=7.5e-05 
+ as=0 ad=0 ps=0 pd=0 
m1 1 123 122 1 penh l=3e-06 w=7.5e-05 
+ as=0 ad=0 ps=0 pd=0 
m1 122 123 1 1 penh l=3e-06 w=7.5e-05 
+ as=0 ad=0 ps=0 pd=0 
m1 1 123 124 1 penh l=3e-06 w=7.5e-05 
+ as=0 ad=0 ps=0 pd=0 
m1 124 123 1 1 penh l=3e-06 w=7.5e-05 
+ as=0 ad=0 ps=0 pd=0 
m1 1 123 124 1 penh l=3e-06 w=7.5e-05 
+ as=0 ad=0 ps=0 pd=0 
m1 124 123 1 1 penh l=3e-06 w=7.5e-05 
+ as=0 ad=0 ps=0 pd=0 
m1 0 122 121 0 nenh l=3e-06 w=7.5e-05 
+ as=0 ad=0 ps=0 pd=0 
m1 121 122 0 0 nenh l=3e-06 w=7.5e-05 
+ as=0 ad=0 ps=0 pd=0 
m1 0 123 122 0 nenh l=3e-06 w=7.5e-05 
+ as=0 ad=0 ps=0 pd=0 
m1 122 123 0 0 nenh l=3e-06 w=7.5e-05 
+ as=0 ad=0 ps=0 pd=0 
m1 0 123 124 0 nenh l=3e-06 w=7.5e-05 
+ as=0 ad=0 ps=0 pd=0 
m1 124 123 0 0 nenh l=3e-06 w=7.5e-05 
+ as=0 ad=0 ps=0 pd=0 
m1 1 126 125 1 penh l=3e-06 w=7.5e-05 
+ as=0 ad=0 ps=0 pd=0 
m1 126 6 127 1 penh l=3e-06 w=3e-05 
+ as=0 ad=0 ps=0 pd=0 
m1 0 126 125 0 nenh l=3e-06 w=7.5e-05 
+ as=0 ad=0 ps=0 pd=0 
m1 126 7 127 0 nenh l=3e-06 w=3e-05 
+ as=0 ad=0 ps=0 pd=0 
m1 1 129 128 1 penh l=3e-06 w=7.5e-05 
+ as=0 ad=0 ps=0 pd=0 
m1 128 10 1 1 penh l=3e-06 w=7.5e-05 
+ as=0 ad=0 ps=0 pd=0 
m1 1 10 128 1 penh l=3e-06 w=7.5e-05 
+ as=0 ad=0 ps=0 pd=0 