pchip.sp SPICE FILE
.model nenh nmos
+ level = 2
+   vto = 0.62249   kp = 6.32664e-05   gamma = 0.639243
+   phi = 0.31
+
+   cgso = 2.89e-10   cgdo = 2.89e-10
+   rsh = 60   cj = 0.000327
+   mj = 1.067   cjsw = 1.74e-10   mjsw = 0.195
+   tox = 2.25e-08   nsub = 1.066e+16
+   nss = 3e+10   nfs = 4.55168e+12   tpg = 1
+   xj = 9e-07   ld = 0   uo = 1215.74
+   ucrit = 174667   uexp = 0.0461235
+   vmax = 177269   neff = 4.6883
+
+   delta = 0
.model penh pmos
+ level = 2
+   vto = -0.63025   kp = 2.63544e-05   gamma = 0.618101
+   phi = 0.541111
+
+   cgso = 3.35e-10   cgdo = 3.35e-10
+   rsh = 150   cj = 0.000475
+   mj = 0.341   cjsw = 2.23e-10   mjsw = 0.307
+   tox = 2.25e-08   nsub = 6.57544e+16
+   nss = 3e+10   nfs = 1.66844e+11   tpg = -1
+   xj = 1.12799e-07   ld = 3e-08   uo = 361.941
+   ucrit = 637449   uexp = 0.0888696
+   vmax = 63253.3   neff = 0.64354
+
+   delta = 0
.subckt i 1 2 3 4 5
md1 2 7 6 2 nenh l=3e-06 w=4.5e-05 
+ as=3.375e-10 ad=2.41014e-09 ps=6e-05 pd=0.000160714 
+ nrs=0.166667 nrd=1.1902 
md2 3 7 6 3 penh l=3e-06 w=6.3e-05 
+ as=4.725e-10 ad=4.725e-10 ps=7.8e-05 pd=7.26921e-05 
+ nrs=0.119048 nrd=0.119048 
md3 7 5 2 2 nenh l=6e-06 w=4.5e-05 
+ as=2.41014e-09 ad=3.375e-10 ps=0.000160714 pd=6e-05 
+ nrs=1.1902 nrd=0.166667 
md4 7 5 3 3 penh l=6e-06 w=6.3e-05 
+ as=4.725e-10 ad=4.725e-10 ps=7.26921e-05 pd=7.8e-05 
+ nrs=0.119048 nrd=0.119048 
md5 2 2 5 2 nenh l=6e-06 w=6e-05 
+ as=2.5992e-08 ad=3.21353e-09 ps=0.001164 pd=0.000214285 
+ nrs=7.21999 nrd=0.892646 
md6 8 6 2 2 nenh l=3e-06 w=0.0001035 
+ as=5.54333e-09 ad=7.7625e-10 ps=0.000369643 pd=0.0001185 
+ nrs=0.517475 nrd=0.0724638 
md7 8 6 3 3 penh l=3e-06 w=0.000132 
+ as=9.9e-10 ad=9.9e-10 ps=0.000152308 pd=0.000147 
+ nrs=0.0568181 nrd=0.0568181 
md8 2 8 4 2 nenh l=3e-06 w=0.0001035 
+ as=7.7625e-10 ad=5.54333e-09 ps=0.0001185 pd=0.000369643 
+ nrs=0.0724638 nrd=0.517475 
md9 3 8 4 3 penh l=3e-06 w=0.000132 
+ as=9.9e-10 ad=9.9e-10 ps=0.000147 pd=0.000152308 
+ nrs=0.0568181 nrd=0.0568181 
c1 2 4 3.66898e-17
c2 2 8 3.86898e-17
c3 2 5 2.1064e-15
c4 2 7 1.47999e-17
c5 2 6 2.17999e-17
.ends i
.subckt four 1 2 3 4 5
+ 6 7 8 9 10 11
+ 12 13 14 15 16 17
+ 18 19 20 21 22 23
+ 24 25 26 27 28
md10 29 30 28 28 penh l=3e-06 w=6e-06 
+ as=9.31956e-11 ad=1.44e-10 ps=2.75217e-05 pd=5.4e-05 
+ nrs=2.58877 nrd=4 
md11 31 32 28 28 penh l=3e-06 w=6e-06 
+ as=9.31956e-11 ad=1.44e-10 ps=2.75217e-05 pd=5.4e-05 
+ nrs=2.58877 nrd=4 
md12 28 34 33 28 penh l=3e-06 w=1.2e-05 
+ as=2.25e-10 ad=1.86391e-10 ps=3.75e-05 pd=5.50434e-05 
+ nrs=1.5625 nrd=1.29438 
md13 28 36 35 28 penh l=3e-06 w=1.2e-05 
+ as=2.25e-10 ad=1.86391e-10 ps=3.75e-05 pd=5.50434e-05 
+ nrs=1.5625 nrd=1.29438 
md14 28 38 37 28 penh l=3e-06 w=6e-06 
+ as=9.9e-11 ad=9.31956e-11 ps=3.3e-05 pd=2.75217e-05 
+ nrs=2.75 nrd=2.58877 
md15 39 40 28 28 penh l=3e-06 w=6e-06 
+ as=9.31956e-11 ad=1.215e-10 ps=2.75217e-05 pd=4.65e-05 
+ nrs=2.58877 nrd=3.375 
md16 41 42 28 28 penh l=3e-06 w=6e-06 
+ as=9.31956e-11 ad=1.215e-10 ps=2.75217e-05 pd=4.65e-05 
+ nrs=2.58877 nrd=3.375 
md17 28 44 43 28 penh l=3e-06 w=6e-06 
+ as=9.9e-11 ad=9.31956e-11 ps=3.3e-05 pd=2.75217e-05 
+ nrs=2.75 nrd=2.58877 
md18 28 46 45 28 penh l=3e-06 w=1.2e-05 
+ as=2.25e-10 ad=1.86391e-10 ps=3.75e-05 pd=5.50434e-05 
+ nrs=1.5625 nrd=1.29438 
md19 28 48 47 28 penh l=3e-06 w=1.2e-05 
+ as=2.25e-10 ad=1.86391e-10 ps=3.75e-05 pd=5.50434e-05 
+ nrs=1.5625 nrd=1.29438 
md20 49 50 28 28 penh l=3e-06 w=1.2e-05 
+ as=1.86391e-10 ad=2.67428e-10 ps=5.50434e-05 pd=6.34285e-05 
+ nrs=1.29438 nrd=1.85714 
md21 51 52 28 28 penh l=3e-06 w=1.2e-05 
+ as=1.86391e-10 ad=2.67428e-10 ps=5.50434e-05 pd=6.34285e-05 
+ nrs=1.29438 nrd=1.85714 
md22 24 53 28 28 penh l=3e-06 w=1.2e-05 
+ as=1.86391e-10 ad=2.67428e-10 ps=5.50434e-05 pd=6.34285e-05 
+ nrs=1.29438 nrd=1.85714 
md23 23 54 28 28 penh l=3e-06 w=1.2e-05 
+ as=1.86391e-10 ad=2.67428e-10 ps=5.50434e-05 pd=6.34285e-05 
+ nrs=1.29438 nrd=1.85714 
md24 28 56 55 28 penh l=3e-06 w=6e-06 
+ as=9.9e-11 ad=9.31956e-11 ps=3.3e-05 pd=2.75217e-05 
+ nrs=2.75 nrd=2.58877 
md25 57 58 28 28 penh l=3e-06 w=6e-06 
+ as=9.31956e-11 ad=1.2375e-10 ps=2.75217e-05 pd=4.725e-05 
+ nrs=2.58877 nrd=3.4375 
md26 59 60 28 28 penh l=3e-06 w=6e-06 
+ as=9.31956e-11 ad=1.2375e-10 ps=2.75217e-05 pd=4.725e-05 
+ nrs=2.58877 nrd=3.4375 
md27 28 62 61 28 penh l=3e-06 w=6e-06 
+ as=9.9e-11 ad=9.31956e-11 ps=3.3e-05 pd=2.75217e-05 
+ nrs=2.75 nrd=2.58877 
md28 28 64 63 28 penh l=3e-06 w=6e-06 
+ as=6.1875e-11 ad=9.31956e-11 ps=2.1e-05 pd=2.75217e-05 
+ nrs=1.71875 nrd=2.58877 
md29 28 11 65 28 penh l=3e-06 w=6e-06 
+ as=6.1875e-11 ad=9.31956e-11 ps=2.1e-05 pd=2.75217e-05 
+ nrs=1.71875 nrd=2.58877 
md30 66 67 28 28 penh l=3e-06 w=1.2e-05 
+ as=1.86391e-10 ad=2.484e-10 ps=5.50434e-05 pd=6.24e-05 
+ nrs=1.29438 nrd=1.725 
md31 28 69 68 28 penh l=3e-06 w=6e-06 
+ as=7.5375e-11 ad=9.31956e-11 ps=2.55e-05 pd=2.75217e-05 
+ nrs=2.09375 nrd=2.58877 
md32 70 71 28 28 penh l=3e-06 w=1.2e-05 
+ as=1.86391e-10 ad=2.484e-10 ps=5.50434e-05 pd=6.24e-05 
+ nrs=1.29438 nrd=1.725 
md33 28 6 72 28 penh l=3e-06 w=6e-06 
+ as=7.5375e-11 ad=9.31956e-11 ps=2.55e-05 pd=2.75217e-05 
+ nrs=2.09375 nrd=2.58877 
md34 73 74 28 28 penh l=3e-06 w=6e-06 
+ as=9.31956e-11 ad=6.3e-11 ps=2.75217e-05 pd=2.1e-05 
+ nrs=2.58877 nrd=1.75 
md35 75 76 28 28 penh l=3e-06 w=6e-06 
+ as=9.31956e-11 ad=6.3e-11 ps=2.75217e-05 pd=2.1e-05 
+ nrs=2.58877 nrd=1.75 
md36 28 78 77 28 penh l=3e-06 w=1.2e-05 
+ as=2.25e-10 ad=1.86391e-10 ps=3.75e-05 pd=5.50434e-05 
+ nrs=1.5625 nrd=1.29438 
md37 79 80 28 28 penh l=3e-06 w=1.2e-05 
+ as=1.86391e-10 ad=2.62286e-10 ps=5.50434e-05 pd=6.25714e-05 
+ nrs=1.29438 nrd=1.82143 
md38 28 21 81 28 penh l=3e-06 w=1.2e-05 
+ as=2.25e-10 ad=1.86391e-10 ps=3.75e-05 pd=5.50434e-05 
+ nrs=1.5625 nrd=1.29438 
md39 22 20 28 28 penh l=3e-06 w=1.2e-05 
+ as=1.86391e-10 ad=2.62286e-10 ps=5.50434e-05 pd=6.25714e-05 
+ nrs=1.29438 nrd=1.82143 
md40 82 83 28 28 penh l=3e-06 w=1.2e-05 
+ as=1.86391e-10 ad=1.71e-10 ps=5.50434e-05 pd=4.2e-05 
+ nrs=1.29438 nrd=1.1875 
md41 28 85 84 28 penh l=3e-06 w=1.2e-05 
+ as=1.71e-10 ad=1.86391e-10 ps=4.2e-05 pd=5.50434e-05 
+ nrs=1.1875 nrd=1.29438 
md42 86 87 28 28 penh l=3e-06 w=1.2e-05 
+ as=1.86391e-10 ad=1.71e-10 ps=5.50434e-05 pd=4.2e-05 
+ nrs=1.29438 nrd=1.1875 
md43 28 89 88 28 penh l=3e-06 w=1.2e-05 
+ as=1.71e-10 ad=1.86391e-10 ps=4.2e-05 pd=5.50434e-05 
+ nrs=1.1875 nrd=1.29438 
md44 28 91 90 28 penh l=3e-06 w=6e-06 
+ as=1.35e-10 ad=9.31956e-11 ps=4.5e-05 pd=2.75217e-05 
+ nrs=3.75 nrd=2.58877 
md45 92 93 28 28 penh l=3e-06 w=6e-06 
+ as=9.31956e-11 ad=1.08e-10 ps=2.75217e-05 pd=4.2e-05 
+ nrs=2.58877 nrd=3 
md46 94 95 28 28 penh l=3e-06 w=6e-06 
+ as=9.31956e-11 ad=1.08e-10 ps=2.75217e-05 pd=4.2e-05 
+ nrs=2.58877 nrd=3 
md47 28 97 96 28 penh l=3e-06 w=6e-06 
+ as=1.35e-10 ad=9.31956e-11 ps=4.5e-05 pd=2.75217e-05 
+ nrs=3.75 nrd=2.58877 
md48 83 98 28 28 penh l=3e-06 w=1.2e-05 
+ as=1.86391e-10 ad=1.71e-10 ps=5.50434e-05 pd=4.2e-05 
+ nrs=1.29438 nrd=1.1875 
md49 28 99 85 28 penh l=3e-06 w=1.2e-05 
+ as=1.35e-10 ad=1.86391e-10 ps=3.6e-05 pd=5.50434e-05 
+ nrs=0.9375 nrd=1.29438 
md50 87 100 28 28 penh l=3e-06 w=1.2e-05 
+ as=1.86391e-10 ad=1.71e-10 ps=5.50434e-05 pd=4.2e-05 
+ nrs=1.29438 nrd=1.1875 
md51 28 101 89 28 penh l=3e-06 w=1.2e-05 
+ as=1.35e-10 ad=1.86391e-10 ps=3.6e-05 pd=5.50434e-05 
+ nrs=0.9375 nrd=1.29438 
md52 28 103 102 28 penh l=3e-06 w=6e-06 
+ as=1.2375e-10 ad=9.31956e-11 ps=3.45e-05 pd=2.75217e-05 
+ nrs=3.4375 nrd=2.58877 
md53 104 25 28 28 penh l=3e-06 w=6e-06 
+ as=9.31956e-11 ad=8.1e-11 ps=2.75217e-05 pd=3.3e-05 
+ nrs=2.58877 nrd=2.25 
md54 28 19 17 28 penh l=3e-06 w=6e-06 
+ as=1.2375e-10 ad=9.31956e-11 ps=3.45e-05 pd=2.75217e-05 
+ nrs=3.4375 nrd=2.58877 
md55 105 26 28 28 penh l=3e-06 w=6e-06 
+ as=9.31956e-11 ad=8.1e-11 ps=2.75217e-05 pd=3.3e-05 
+ nrs=2.58877 nrd=2.25 
md56 28 107 106 28 penh l=3e-06 w=1.2e-05 
+ as=1.71e-10 ad=1.86391e-10 ps=4.2e-05 pd=5.50434e-05 
+ nrs=1.1875 nrd=1.29438 
md57 28 109 108 28 penh l=3e-06 w=1.2e-05 
+ as=1.71e-10 ad=1.86391e-10 ps=4.2e-05 pd=5.50434e-05 
+ nrs=1.1875 nrd=1.29438 
md58 103 15 28 28 penh l=3e-06 w=1.2e-05 
+ as=1.86391e-10 ad=2.295e-10 ps=5.50434e-05 pd=6e-05 
+ nrs=1.29438 nrd=1.59375 
md59 16 110 28 28 penh l=3e-06 w=1.2e-05 
+ as=1.86391e-10 ad=2.295e-10 ps=5.50434e-05 pd=6e-05 
+ nrs=1.29438 nrd=1.59375 
md60 28 112 111 28 penh l=3e-06 w=6e-06 
+ as=6.3e-11 ad=9.31956e-11 ps=2.1e-05 pd=2.75217e-05 
+ nrs=1.75 nrd=2.58877 
md61 28 114 113 28 penh l=3e-06 w=6e-06 
+ as=6.3e-11 ad=9.31956e-11 ps=2.1e-05 pd=2.75217e-05 
+ nrs=1.75 nrd=2.58877 
md62 14 115 28 28 penh l=6e-06 w=1.2e-05 
+ as=1.86391e-10 ad=1.89e-10 ps=5.50434e-05 pd=4.5e-05 
+ nrs=1.29438 nrd=1.3125 
md63 13 116 28 28 penh l=6e-06 w=1.2e-05 
+ as=1.86391e-10 ad=1.89e-10 ps=5.50434e-05 pd=4.5e-05 
+ nrs=1.29438 nrd=1.3125 
md64 117 118 28 28 penh l=3e-06 w=6e-06 
+ as=9.31956e-11 ad=7.2e-11 ps=2.75217e-05 pd=3e-05 
+ nrs=2.58877 nrd=2 
md65 119 120 28 28 penh l=3e-06 w=6e-06 
+ as=9.31956e-11 ad=7.2e-11 ps=2.75217e-05 pd=3e-05 
+ nrs=2.58877 nrd=2 
md66 28 122 121 28 penh l=3e-06 w=6e-06 
+ as=6.3e-11 ad=9.31956e-11 ps=2.1e-05 pd=2.75217e-05 
+ nrs=1.75 nrd=2.58877 
md67 28 124 123 28 penh l=3e-06 w=6e-06 
+ as=6.3e-11 ad=9.31956e-11 ps=2.1e-05 pd=2.75217e-05 
+ nrs=1.75 nrd=2.58877 
md68 28 126 125 28 penh l=3e-06 w=1.2e-05 
+ as=2.25e-10 ad=1.86391e-10 ps=3.75e-05 pd=5.50434e-05 
+ nrs=1.5625 nrd=1.29438 
md69 28 128 127 28 penh l=3e-06 w=1.2e-05 
+ as=2.25e-10 ad=1.86391e-10 ps=3.75e-05 pd=5.50434e-05 
+ nrs=1.5625 nrd=1.29438 
md70 129 130 28 28 penh l=3e-06 w=6e-06 
+ as=9.31956e-11 ad=6.3e-11 ps=2.75217e-05 pd=2.1e-05 
+ nrs=2.58877 nrd=1.75 
md71 131 132 28 28 penh l=3e-06 w=6e-06 
+ as=9.31956e-11 ad=6.3e-11 ps=2.75217e-05 pd=2.1e-05 
+ nrs=2.58877 nrd=1.75 
md72 28 134 133 28 penh l=3e-06 w=6e-06 
+ as=9.9e-11 ad=9.31956e-11 ps=3.3e-05 pd=2.75217e-05 
+ nrs=2.75 nrd=2.58877 
md73 28 136 135 28 penh l=3e-06 w=6e-06 
+ as=9.9e-11 ad=9.31956e-11 ps=3.3e-05 pd=2.75217e-05 
+ nrs=2.75 nrd=2.58877 
md74 122 137 28 28 penh l=3e-06 w=6e-06 
+ as=9.31956e-11 ad=1.44e-10 ps=2.75217e-05 pd=5.4e-05 
+ nrs=2.58877 nrd=4 
md75 124 138 28 28 penh l=3e-06 w=6e-06 
+ as=9.31956e-11 ad=1.44e-10 ps=2.75217e-05 pd=5.4e-05 
+ nrs=2.58877 nrd=4 
md76 28 140 139 28 penh l=3e-06 w=1.2e-05 
+ as=2.25e-10 ad=1.86391e-10 ps=3.75e-05 pd=5.50434e-05 
+ nrs=1.5625 nrd=1.29438 
md77 28 142 141 28 penh l=3e-06 w=1.2e-05 
+ as=2.25e-10 ad=1.86391e-10 ps=3.75e-05 pd=5.50434e-05 
+ nrs=1.5625 nrd=1.29438 
md78 28 144 143 28 penh l=3e-06 w=6e-06 
+ as=9.9e-11 ad=9.31956e-11 ps=3.3e-05 pd=2.75217e-05 
+ nrs=2.75 nrd=2.58877 
md79 145 146 28 28 penh l=3e-06 w=6e-06 
+ as=9.31956e-11 ad=1.215e-10 ps=2.75217e-05 pd=4.65e-05 
+ nrs=2.58877 nrd=3.375 
md80 147 148 28 28 penh l=3e-06 w=6e-06 
+ as=9.31956e-11 ad=1.215e-10 ps=2.75217e-05 pd=4.65e-05 
+ nrs=2.58877 nrd=3.375 
md81 28 150 149 28 penh l=3e-06 w=6e-06 
+ as=9.9e-11 ad=9.31956e-11 ps=3.3e-05 pd=2.75217e-05 
+ nrs=2.75 nrd=2.58877 
md82 28 64 151 28 penh l=3e-06 w=1.2e-05 
+ as=1.53e-10 ad=1.86391e-10 ps=3.9e-05 pd=5.50434e-05 
+ nrs=1.0625 nrd=1.29438 
md83 152 153 28 28 penh l=3e-06 w=1.2e-05 
+ as=1.86391e-10 ad=1.35e-10 ps=5.50434e-05 pd=3.6e-05 
+ nrs=1.29438 nrd=0.9375 
md84 28 11 12 28 penh l=3e-06 w=1.2e-05 
+ as=1.53e-10 ad=1.86391e-10 ps=3.9e-05 pd=5.50434e-05 
+ nrs=1.0625 nrd=1.29438 
md85 154 155 28 28 penh l=3e-06 w=1.2e-05 
+ as=1.86391e-10 ad=1.35e-10 ps=5.50434e-05 pd=3.6e-05 
+ nrs=1.29438 nrd=0.9375 
md86 28 157 156 28 penh l=3e-06 w=1.2e-05 
+ as=2.25e-10 ad=1.86391e-10 ps=3.75e-05 pd=5.50434e-05 
+ nrs=1.5625 nrd=1.29438 
md87 28 159 158 28 penh l=3e-06 w=1.2e-05 
+ as=2.25e-10 ad=1.86391e-10 ps=3.75e-05 pd=5.50434e-05 
+ nrs=1.5625 nrd=1.29438 
md88 160 161 28 28 penh l=3e-06 w=1.2e-05 
+ as=1.86391e-10 ad=2.67428e-10 ps=5.50434e-05 pd=6.34285e-05 
+ nrs=1.29438 nrd=1.85714 
md89 162 163 28 28 penh l=3e-06 w=1.2e-05 
+ as=1.86391e-10 ad=2.67428e-10 ps=5.50434e-05 pd=6.34285e-05 
+ nrs=1.29438 nrd=1.85714 
md90 164 165 28 28 penh l=3e-06 w=1.2e-05 
+ as=1.86391e-10 ad=2.67428e-10 ps=5.50434e-05 pd=6.34285e-05 
+ nrs=1.29438 nrd=1.85714 
md91 166 167 28 28 penh l=3e-06 w=1.2e-05 
+ as=1.86391e-10 ad=2.67428e-10 ps=5.50434e-05 pd=6.34285e-05 
+ nrs=1.29438 nrd=1.85714 
md92 28 169 168 28 penh l=3e-06 w=6e-06 
+ as=9.9e-11 ad=9.31956e-11 ps=3.3e-05 pd=2.75217e-05 
+ nrs=2.75 nrd=2.58877 
md93 170 171 28 28 penh l=3e-06 w=6e-06 
+ as=9.31956e-11 ad=1.2375e-10 ps=2.75217e-05 pd=4.725e-05 
+ nrs=2.58877 nrd=3.4375 
md94 172 173 28 28 penh l=3e-06 w=6e-06 
+ as=9.31956e-11 ad=1.2375e-10 ps=2.75217e-05 pd=4.725e-05 
+ nrs=2.58877 nrd=3.4375 
md95 28 175 174 28 penh l=3e-06 w=6e-06 
+ as=9.9e-11 ad=9.31956e-11 ps=3.3e-05 pd=2.75217e-05 
+ nrs=2.75 nrd=2.58877 
md96 28 177 176 28 penh l=3e-06 w=6e-06 
+ as=6.1875e-11 ad=9.31956e-11 ps=2.1e-05 pd=2.75217e-05 
+ nrs=1.71875 nrd=2.58877 
md97 28 179 178 28 penh l=3e-06 w=6e-06 
+ as=6.1875e-11 ad=9.31956e-11 ps=2.1e-05 pd=2.75217e-05 
+ nrs=1.71875 nrd=2.58877 
md98 180 181 28 28 penh l=3e-06 w=1.2e-05 
+ as=1.86391e-10 ad=2.484e-10 ps=5.50434e-05 pd=6.24e-05 
+ nrs=1.29438 nrd=1.725 
md99 28 183 182 28 penh l=3e-06 w=6e-06 
+ as=7.5375e-11 ad=9.31956e-11 ps=2.55e-05 pd=2.75217e-05 
+ nrs=2.09375 nrd=2.58877 
md100 184 185 28 28 penh l=3e-06 w=1.2e-05 
+ as=1.86391e-10 ad=2.484e-10 ps=5.50434e-05 pd=6.24e-05 
+ nrs=1.29438 nrd=1.725 
md101 28 187 186 28 penh l=3e-06 w=6e-06 
+ as=7.5375e-11 ad=9.31956e-11 ps=2.55e-05 pd=2.75217e-05 
+ nrs=2.09375 nrd=2.58877 
md102 188 189 28 28 penh l=3e-06 w=6e-06 
+ as=9.31956e-11 ad=6.3e-11 ps=2.75217e-05 pd=2.1e-05 
+ nrs=2.58877 nrd=1.75 
md103 190 191 28 28 penh l=3e-06 w=6e-06 
+ as=9.31956e-11 ad=6.3e-11 ps=2.75217e-05 pd=2.1e-05 
+ nrs=2.58877 nrd=1.75 
md104 28 193 192 28 penh l=3e-06 w=1.2e-05 
+ as=2.25e-10 ad=1.86391e-10 ps=3.75e-05 pd=5.50434e-05 
+ nrs=1.5625 nrd=1.29438 
md105 194 195 28 28 penh l=3e-06 w=1.2e-05 
+ as=1.86391e-10 ad=2.62286e-10 ps=5.50434e-05 pd=6.25714e-05 
+ nrs=1.29438 nrd=1.82143 
md106 28 197 196 28 penh l=3e-06 w=1.2e-05 
+ as=2.25e-10 ad=1.86391e-10 ps=3.75e-05 pd=5.50434e-05 
+ nrs=1.5625 nrd=1.29438 
md107 198 199 28 28 penh l=3e-06 w=1.2e-05 
+ as=1.86391e-10 ad=2.62286e-10 ps=5.50434e-05 pd=6.25714e-05 
+ nrs=1.29438 nrd=1.82143 
md108 200 201 28 28 penh l=3e-06 w=1.2e-05 
+ as=1.86391e-10 ad=1.71e-10 ps=5.50434e-05 pd=4.2e-05 
+ nrs=1.29438 nrd=1.1875 
md109 28 203 202 28 penh l=3e-06 w=1.2e-05 
+ as=1.71e-10 ad=1.86391e-10 ps=4.2e-05 pd=5.50434e-05 
+ nrs=1.1875 nrd=1.29438 
md110 204 205 28 28 penh l=3e-06 w=1.2e-05 
+ as=1.86391e-10 ad=1.71e-10 ps=5.50434e-05 pd=4.2e-05 
+ nrs=1.29438 nrd=1.1875 
md111 28 207 206 28 penh l=3e-06 w=1.2e-05 
+ as=1.71e-10 ad=1.86391e-10 ps=4.2e-05 pd=5.50434e-05 
+ nrs=1.1875 nrd=1.29438 
md112 28 209 208 28 penh l=3e-06 w=6e-06 
+ as=1.35e-10 ad=9.31956e-11 ps=4.5e-05 pd=2.75217e-05 
+ nrs=3.75 nrd=2.58877 
md113 210 211 28 28 penh l=3e-06 w=6e-06 
+ as=9.31956e-11 ad=1.08e-10 ps=2.75217e-05 pd=4.2e-05 
+ nrs=2.58877 nrd=3 
md114 212 213 28 28 penh l=3e-06 w=6e-06 
+ as=9.31956e-11 ad=1.08e-10 ps=2.75217e-05 pd=4.2e-05 
+ nrs=2.58877 nrd=3 
md115 28 215 214 28 penh l=3e-06 w=6e-06 
+ as=1.35e-10 ad=9.31956e-11 ps=4.5e-05 pd=2.75217e-05 
+ nrs=3.75 nrd=2.58877 
md116 28 69 64 28 penh l=3e-06 w=1.2e-05 
+ as=1.53e-10 ad=1.86391e-10 ps=3.9e-05 pd=5.50434e-05 
+ nrs=1.0625 nrd=1.29438 
md117 216 69 28 28 penh l=3e-06 w=6e-06 
+ as=9.31956e-11 ad=7.2e-11 ps=2.75217e-05 pd=3e-05 
+ nrs=2.58877 nrd=2 
md118 153 69 28 28 penh l=3e-06 w=1.2e-05 
+ as=1.86391e-10 ad=1.35e-10 ps=5.50434e-05 pd=3.6e-05 
+ nrs=1.29438 nrd=0.9375 
md119 28 6 11 28 penh l=3e-06 w=1.2e-05 
+ as=1.53e-10 ad=1.86391e-10 ps=3.9e-05 pd=5.50434e-05 
+ nrs=1.0625 nrd=1.29438 
md120 10 6 28 28 penh l=3e-06 w=6e-06 
+ as=9.31956e-11 ad=7.2e-11 ps=2.75217e-05 pd=3e-05 
+ nrs=2.58877 nrd=2 
md121 155 6 28 28 penh l=3e-06 w=1.2e-05 
+ as=1.86391e-10 ad=1.35e-10 ps=5.50434e-05 pd=3.6e-05 
+ nrs=1.29438 nrd=0.9375 
md122 201 217 28 28 penh l=3e-06 w=1.2e-05 
+ as=1.86391e-10 ad=1.71e-10 ps=5.50434e-05 pd=4.2e-05 
+ nrs=1.29438 nrd=1.1875 
md123 28 218 203 28 penh l=3e-06 w=1.2e-05 
+ as=1.35e-10 ad=1.86391e-10 ps=3.6e-05 pd=5.50434e-05 
+ nrs=0.9375 nrd=1.29438 
md124 205 219 28 28 penh l=3e-06 w=1.2e-05 
+ as=1.86391e-10 ad=1.71e-10 ps=5.50434e-05 pd=4.2e-05 
+ nrs=1.29438 nrd=1.1875 
md125 28 220 207 28 penh l=3e-06 w=1.2e-05 
+ as=1.35e-10 ad=1.86391e-10 ps=3.6e-05 pd=5.50434e-05 
+ nrs=0.9375 nrd=1.29438 
md126 221 222 28 28 penh l=3e-06 w=6e-06 
+ as=9.31956e-11 ad=6.1875e-11 ps=2.75217e-05 pd=2.1e-05 
+ nrs=2.58877 nrd=1.71875 
md127 223 222 28 28 penh l=3e-06 w=6e-06 
+ as=9.31956e-11 ad=7.0875e-11 ps=2.75217e-05 pd=2.4e-05 
+ nrs=2.58877 nrd=1.96875 
md128 224 4 28 28 penh l=3e-06 w=6e-06 
+ as=9.31956e-11 ad=6.1875e-11 ps=2.75217e-05 pd=2.1e-05 
+ nrs=2.58877 nrd=1.71875 
md129 225 4 28 28 penh l=3e-06 w=6e-06 
+ as=9.31956e-11 ad=7.0875e-11 ps=2.75217e-05 pd=2.4e-05 
+ nrs=2.58877 nrd=1.96875 
md130 28 227 226 28 penh l=3e-06 w=6e-06 
+ as=1.2375e-10 ad=9.31956e-11 ps=3.45e-05 pd=2.75217e-05 
+ nrs=3.4375 nrd=2.58877 
md131 228 229 28 28 penh l=3e-06 w=6e-06 
+ as=9.31956e-11 ad=8.1e-11 ps=2.75217e-05 pd=3.3e-05 
+ nrs=2.58877 nrd=2.25 
md132 28 9 230 28 penh l=3e-06 w=6e-06 
+ as=1.2375e-10 ad=9.31956e-11 ps=3.45e-05 pd=2.75217e-05 
+ nrs=3.4375 nrd=2.58877 
md133 231 232 28 28 penh l=3e-06 w=6e-06 
+ as=9.31956e-11 ad=8.1e-11 ps=2.75217e-05 pd=3.3e-05 
+ nrs=2.58877 nrd=2.25 
md134 28 233 118 28 penh l=3e-06 w=1.2e-05 
+ as=1.71e-10 ad=1.86391e-10 ps=4.2e-05 pd=5.50434e-05 
+ nrs=1.1875 nrd=1.29438 
md135 28 234 120 28 penh l=3e-06 w=1.2e-05 
+ as=1.71e-10 ad=1.86391e-10 ps=4.2e-05 pd=5.50434e-05 
+ nrs=1.1875 nrd=1.29438 
md136 227 235 28 28 penh l=3e-06 w=1.2e-05 
+ as=1.86391e-10 ad=2.295e-10 ps=5.50434e-05 pd=6e-05 
+ nrs=1.29438 nrd=1.59375 
md137 8 236 28 28 penh l=3e-06 w=1.2e-05 
+ as=1.86391e-10 ad=2.295e-10 ps=5.50434e-05 pd=6e-05 
+ nrs=1.29438 nrd=1.59375 
md138 28 177 130 28 penh l=3e-06 w=1.2e-05 
+ as=1.53e-10 ad=1.86391e-10 ps=3.9e-05 pd=5.50434e-05 
+ nrs=1.0625 nrd=1.29438 
md139 237 238 28 28 penh l=3e-06 w=1.2e-05 
+ as=1.86391e-10 ad=1.35e-10 ps=5.50434e-05 pd=3.6e-05 
+ nrs=1.29438 nrd=0.9375 
md140 28 179 132 28 penh l=3e-06 w=1.2e-05 
+ as=1.53e-10 ad=1.86391e-10 ps=3.9e-05 pd=5.50434e-05 
+ nrs=1.0625 nrd=1.29438 
md141 239 240 28 28 penh l=3e-06 w=1.2e-05 
+ as=1.86391e-10 ad=1.35e-10 ps=5.50434e-05 pd=3.6e-05 
+ nrs=1.29438 nrd=0.9375 
md142 28 183 177 28 penh l=3e-06 w=1.2e-05 
+ as=1.53e-10 ad=1.86391e-10 ps=3.9e-05 pd=5.50434e-05 
+ nrs=1.0625 nrd=1.29438 
md143 241 183 28 28 penh l=3e-06 w=6e-06 
+ as=9.31956e-11 ad=7.2e-11 ps=2.75217e-05 pd=3e-05 
+ nrs=2.58877 nrd=2 
md144 238 183 28 28 penh l=3e-06 w=1.2e-05 
+ as=1.86391e-10 ad=1.35e-10 ps=5.50434e-05 pd=3.6e-05 
+ nrs=1.29438 nrd=0.9375 
md145 28 187 179 28 penh l=3e-06 w=1.2e-05 
+ as=1.53e-10 ad=1.86391e-10 ps=3.9e-05 pd=5.50434e-05 
+ nrs=1.0625 nrd=1.29438 
md146 242 187 28 28 penh l=3e-06 w=6e-06 
+ as=9.31956e-11 ad=7.2e-11 ps=2.75217e-05 pd=3e-05 
+ nrs=2.58877 nrd=2 
md147 240 187 28 28 penh l=3e-06 w=1.2e-05 
+ as=1.86391e-10 ad=1.35e-10 ps=5.50434e-05 pd=3.6e-05 
+ nrs=1.29438 nrd=0.9375 
md148 243 244 28 28 penh l=3e-06 w=6e-06 
+ as=9.31956e-11 ad=6.1875e-11 ps=2.75217e-05 pd=2.1e-05 
+ nrs=2.58877 nrd=1.71875 
md149 245 244 28 28 penh l=3e-06 w=6e-06 
+ as=9.31956e-11 ad=7.0875e-11 ps=2.75217e-05 pd=2.4e-05 
+ nrs=2.58877 nrd=1.96875 
md150 246 247 28 28 penh l=3e-06 w=6e-06 
+ as=9.31956e-11 ad=6.1875e-11 ps=2.75217e-05 pd=2.1e-05 
+ nrs=2.58877 nrd=1.71875 
md151 248 247 28 28 penh l=3e-06 w=6e-06 
+ as=9.31956e-11 ad=7.0875e-11 ps=2.75217e-05 pd=2.4e-05 
+ nrs=2.58877 nrd=1.96875 
md152 28 250 249 28 penh l=3e-06 w=1.2e-05 
+ as=1.71e-10 ad=1.86391e-10 ps=4.2e-05 pd=5.50434e-05 
+ nrs=1.1875 nrd=1.29438 
md153 28 252 251 28 penh l=3e-06 w=1.2e-05 
+ as=1.71e-10 ad=1.86391e-10 ps=4.2e-05 pd=5.50434e-05 
+ nrs=1.1875 nrd=1.29438 
md154 28 254 253 28 penh l=3e-06 w=1.2e-05 
+ as=1.71e-10 ad=1.86391e-10 ps=4.2e-05 pd=5.50434e-05 
+ nrs=1.1875 nrd=1.29438 
md155 28 1 183 28 penh l=3e-06 w=6e-06 
+ as=7.2e-11 ad=9.31956e-11 ps=3e-05 pd=2.75217e-05 
+ nrs=2 nrd=2.58877 
md156 28 256 255 28 penh l=3e-06 w=1.2e-05 
+ as=1.71e-10 ad=1.86391e-10 ps=4.2e-05 pd=5.50434e-05 
+ nrs=1.1875 nrd=1.29438 
md157 28 1 187 28 penh l=3e-06 w=6e-06 
+ as=7.2e-11 ad=9.31956e-11 ps=3e-05 pd=2.75217e-05 
+ nrs=2 nrd=2.58877 
md158 28 257 254 28 penh l=3e-06 w=1.2e-05 
+ as=1.53e-10 ad=1.86391e-10 ps=3.9e-05 pd=5.50434e-05 
+ nrs=1.0625 nrd=1.29438 
md159 244 2 28 28 penh l=3e-06 w=1.2e-05 
+ as=1.86391e-10 ad=1.35e-10 ps=5.50434e-05 pd=3.6e-05 
+ nrs=1.29438 nrd=0.9375 
md160 252 257 28 28 penh l=3e-06 w=1.2e-05 
+ as=1.86391e-10 ad=1.35e-10 ps=5.50434e-05 pd=3.6e-05 
+ nrs=1.29438 nrd=0.9375 
md161 28 258 256 28 penh l=3e-06 w=1.2e-05 
+ as=1.53e-10 ad=1.86391e-10 ps=3.9e-05 pd=5.50434e-05 
+ nrs=1.0625 nrd=1.29438 
md162 247 2 28 28 penh l=3e-06 w=1.2e-05 
+ as=1.86391e-10 ad=1.35e-10 ps=5.50434e-05 pd=3.6e-05 
+ nrs=1.29438 nrd=0.9375 
md163 250 258 28 28 penh l=3e-06 w=1.2e-05 
+ as=1.86391e-10 ad=1.35e-10 ps=5.50434e-05 pd=3.6e-05 
+ nrs=1.29438 nrd=0.9375 
md164 28 260 259 28 penh l=3e-06 w=1.2e-05 
+ as=1.71e-10 ad=1.86391e-10 ps=4.2e-05 pd=5.50434e-05 
+ nrs=1.1875 nrd=1.29438 
md165 28 262 261 28 penh l=3e-06 w=1.2e-05 
+ as=1.71e-10 ad=1.86391e-10 ps=4.2e-05 pd=5.50434e-05 
+ nrs=1.1875 nrd=1.29438 
md166 28 264 263 28 penh l=3e-06 w=1.2e-05 
+ as=1.71e-10 ad=1.86391e-10 ps=4.2e-05 pd=5.50434e-05 
+ nrs=1.1875 nrd=1.29438 
md167 28 1 69 28 penh l=3e-06 w=6e-06 
+ as=7.2e-11 ad=9.31956e-11 ps=3e-05 pd=2.75217e-05 
+ nrs=2 nrd=2.58877 
md168 28 5 7 28 penh l=3e-06 w=1.2e-05 
+ as=1.71e-10 ad=1.86391e-10 ps=4.2e-05 pd=5.50434e-05 
+ nrs=1.1875 nrd=1.29438 
md169 28 1 6 28 penh l=3e-06 w=6e-06 
+ as=7.2e-11 ad=9.31956e-11 ps=3e-05 pd=2.75217e-05 
+ nrs=2 nrd=2.58877 
md170 28 265 264 28 penh l=3e-06 w=1.2e-05 
+ as=1.53e-10 ad=1.86391e-10 ps=3.9e-05 pd=5.50434e-05 
+ nrs=1.0625 nrd=1.29438 
md171 222 2 28 28 penh l=3e-06 w=1.2e-05 
+ as=1.86391e-10 ad=1.35e-10 ps=5.50434e-05 pd=3.6e-05 
+ nrs=1.29438 nrd=0.9375 
md172 262 265 28 28 penh l=3e-06 w=1.2e-05 
+ as=1.86391e-10 ad=1.35e-10 ps=5.50434e-05 pd=3.6e-05 
+ nrs=1.29438 nrd=0.9375 
md173 28 3 5 28 penh l=3e-06 w=1.2e-05 
+ as=1.53e-10 ad=1.86391e-10 ps=3.9e-05 pd=5.50434e-05 
+ nrs=1.0625 nrd=1.29438 
md174 4 2 28 28 penh l=3e-06 w=1.2e-05 
+ as=1.86391e-10 ad=1.35e-10 ps=5.50434e-05 pd=3.6e-05 
+ nrs=1.29438 nrd=0.9375 
md175 260 3 28 28 penh l=3e-06 w=1.2e-05 
+ as=1.86391e-10 ad=1.35e-10 ps=5.50434e-05 pd=3.6e-05 
+ nrs=1.29438 nrd=0.9375 
md176 28 267 266 28 penh l=3e-06 w=6e-06 
+ as=6.3e-11 ad=9.31956e-11 ps=2.1e-05 pd=2.75217e-05 
+ nrs=1.75 nrd=2.58877 
md177 28 269 268 28 penh l=3e-06 w=6e-06 
+ as=6.3e-11 ad=9.31956e-11 ps=2.1e-05 pd=2.75217e-05 
+ nrs=1.75 nrd=2.58877 
md178 229 270 28 28 penh l=6e-06 w=1.2e-05 
+ as=1.86391e-10 ad=1.89e-10 ps=5.50434e-05 pd=4.5e-05 
+ nrs=1.29438 nrd=1.3125 
md179 232 271 28 28 penh l=6e-06 w=1.2e-05 
+ as=1.86391e-10 ad=1.89e-10 ps=5.50434e-05 pd=4.5e-05 
+ nrs=1.29438 nrd=1.3125 
md180 272 106 28 28 penh l=3e-06 w=6e-06 
+ as=9.31956e-11 ad=7.2e-11 ps=2.75217e-05 pd=3e-05 
+ nrs=2.58877 nrd=2 
md181 273 108 28 28 penh l=3e-06 w=6e-06 
+ as=9.31956e-11 ad=7.2e-11 ps=2.75217e-05 pd=3e-05 
+ nrs=2.58877 nrd=2 
md182 28 29 274 28 penh l=3e-06 w=6e-06 
+ as=6.3e-11 ad=9.31956e-11 ps=2.1e-05 pd=2.75217e-05 
+ nrs=1.75 nrd=2.58877 
md183 28 31 275 28 penh l=3e-06 w=6e-06 
+ as=6.3e-11 ad=9.31956e-11 ps=2.1e-05 pd=2.75217e-05 
+ nrs=1.75 nrd=2.58877 
md184 28 277 276 28 penh l=3e-06 w=1.2e-05 
+ as=2.25e-10 ad=1.86391e-10 ps=3.75e-05 pd=5.50434e-05 
+ nrs=1.5625 nrd=1.29438 
md185 28 279 278 28 penh l=3e-06 w=1.2e-05 
+ as=2.25e-10 ad=1.86391e-10 ps=3.75e-05 pd=5.50434e-05 
+ nrs=1.5625 nrd=1.29438 
md186 280 151 28 28 penh l=3e-06 w=6e-06 
+ as=9.31956e-11 ad=6.3e-11 ps=2.75217e-05 pd=2.1e-05 
+ nrs=2.58877 nrd=1.75 
md187 281 12 28 28 penh l=3e-06 w=6e-06 
+ as=9.31956e-11 ad=6.3e-11 ps=2.75217e-05 pd=2.1e-05 
+ nrs=2.58877 nrd=1.75 
md188 28 283 282 28 penh l=3e-06 w=6e-06 
+ as=9.9e-11 ad=9.31956e-11 ps=3.3e-05 pd=2.75217e-05 
+ nrs=2.75 nrd=2.58877 
md189 28 285 284 28 penh l=3e-06 w=6e-06 
+ as=9.9e-11 ad=9.31956e-11 ps=3.3e-05 pd=2.75217e-05 
+ nrs=2.75 nrd=2.58877 
md190 29 30 27 27 nenh l=3e-06 w=6e-06 
+ as=1.08231e-10 ad=1.395e-10 ps=2.9923e-05 pd=6.09999e-05 
+ nrs=3.00641 nrd=3.875 
md191 31 32 27 27 nenh l=3e-06 w=6e-06 
+ as=1.08231e-10 ad=1.395e-10 ps=2.9923e-05 pd=6.09999e-05 
+ nrs=3.00641 nrd=3.875 
md192 27 34 286 27 nenh l=3e-06 w=1.2e-05 
+ as=1.71e-10 ad=2.16461e-10 ps=4.2e-05 pd=5.98461e-05 
+ nrs=1.1875 nrd=1.5032 
md193 27 36 287 27 nenh l=3e-06 w=1.2e-05 
+ as=1.71e-10 ad=2.16461e-10 ps=4.2e-05 pd=5.98461e-05 
+ nrs=1.1875 nrd=1.5032 
md194 39 40 27 27 nenh l=3e-06 w=6e-06 
+ as=1.08231e-10 ad=1.33875e-10 ps=2.9923e-05 pd=5.7e-05 
+ nrs=3.00641 nrd=3.71875 
md195 41 42 27 27 nenh l=3e-06 w=6e-06 
+ as=1.08231e-10 ad=1.33875e-10 ps=2.9923e-05 pd=5.7e-05 
+ nrs=3.00641 nrd=3.71875 
md196 27 44 288 27 nenh l=3e-06 w=6e-06 
+ as=6.75e-11 ad=1.08231e-10 ps=2.85e-05 pd=2.9923e-05 
+ nrs=1.875 nrd=3.00641 
md197 27 38 289 27 nenh l=3e-06 w=6e-06 
+ as=6.75e-11 ad=1.08231e-10 ps=2.85e-05 pd=2.9923e-05 
+ nrs=1.875 nrd=3.00641 
md198 49 50 27 27 nenh l=3e-06 w=1.2e-05 
+ as=2.16461e-10 ad=2.39143e-10 ps=5.98461e-05 pd=6.85713e-05 
+ nrs=1.5032 nrd=1.66071 
md199 51 52 27 27 nenh l=3e-06 w=1.2e-05 
+ as=2.16461e-10 ad=2.39143e-10 ps=5.98461e-05 pd=6.85713e-05 
+ nrs=1.5032 nrd=1.66071 
md200 24 53 27 27 nenh l=3e-06 w=1.2e-05 
+ as=2.16461e-10 ad=2.39143e-10 ps=5.98461e-05 pd=6.85713e-05 
+ nrs=1.5032 nrd=1.66071 
md201 23 54 27 27 nenh l=3e-06 w=1.2e-05 
+ as=2.16461e-10 ad=2.39143e-10 ps=5.98461e-05 pd=6.85713e-05 
+ nrs=1.5032 nrd=1.66071 
md202 27 46 290 27 nenh l=3e-06 w=1.2e-05 
+ as=1.71e-10 ad=2.16461e-10 ps=4.2e-05 pd=5.98461e-05 
+ nrs=1.1875 nrd=1.5032 
md203 27 48 291 27 nenh l=3e-06 w=1.2e-05 
+ as=1.71e-10 ad=2.16461e-10 ps=4.2e-05 pd=5.98461e-05 
+ nrs=1.1875 nrd=1.5032 
md204 57 58 27 27 nenh l=3e-06 w=6e-06 
+ as=1.08231e-10 ad=1.11375e-10 ps=2.9923e-05 pd=4.95e-05 
+ nrs=3.00641 nrd=3.09375 
md205 59 60 27 27 nenh l=3e-06 w=6e-06 
+ as=1.08231e-10 ad=1.11375e-10 ps=2.9923e-05 pd=4.95e-05 
+ nrs=3.00641 nrd=3.09375 
md206 27 62 292 27 nenh l=3e-06 w=6e-06 
+ as=7.2e-11 ad=1.08231e-10 ps=3e-05 pd=2.9923e-05 
+ nrs=2 nrd=3.00641 
md207 27 56 293 27 nenh l=3e-06 w=6e-06 
+ as=7.2e-11 ad=1.08231e-10 ps=3e-05 pd=2.9923e-05 
+ nrs=2 nrd=3.00641 
md208 66 67 27 27 nenh l=3e-06 w=1.2e-05 
+ as=2.16461e-10 ad=2.448e-10 ps=5.98461e-05 pd=7.55999e-05 
+ nrs=1.5032 nrd=1.7 
md209 70 71 27 27 nenh l=3e-06 w=1.2e-05 
+ as=2.16461e-10 ad=2.448e-10 ps=5.98461e-05 pd=7.55999e-05 
+ nrs=1.5032 nrd=1.7 
md210 27 64 74 27 nenh l=3e-06 w=6e-06 
+ as=7.2e-11 ad=1.08231e-10 ps=3e-05 pd=2.9923e-05 
+ nrs=2 nrd=3.00641 
md211 27 66 74 27 nenh l=3e-06 w=6e-06 
+ as=7.2e-11 ad=1.08231e-10 ps=3e-05 pd=2.9923e-05 
+ nrs=2 nrd=3.00641 
md212 27 11 76 27 nenh l=3e-06 w=6e-06 
+ as=7.2e-11 ad=1.08231e-10 ps=3e-05 pd=2.9923e-05 
+ nrs=2 nrd=3.00641 
md213 27 70 76 27 nenh l=3e-06 w=6e-06 
+ as=7.2e-11 ad=1.08231e-10 ps=3e-05 pd=2.9923e-05 
+ nrs=2 nrd=3.00641 
md214 79 80 27 27 nenh l=3e-06 w=1.2e-05 
+ as=2.16461e-10 ad=2.28857e-10 ps=5.98461e-05 pd=6.68571e-05 
+ nrs=1.5032 nrd=1.58928 
md215 22 20 27 27 nenh l=3e-06 w=1.2e-05 
+ as=2.16461e-10 ad=2.28857e-10 ps=5.98461e-05 pd=6.68571e-05 
+ nrs=1.5032 nrd=1.58928 
md216 294 295 27 27 nenh l=3e-06 w=6e-06 
+ as=1.08231e-10 ad=7.2e-11 ps=2.9923e-05 pd=3e-05 
+ nrs=3.00641 nrd=2 
md217 294 69 27 27 nenh l=3e-06 w=6e-06 
+ as=1.08231e-10 ad=7.2e-11 ps=2.9923e-05 pd=3e-05 
+ nrs=3.00641 nrd=2 
md218 296 297 27 27 nenh l=3e-06 w=6e-06 
+ as=1.08231e-10 ad=7.2e-11 ps=2.9923e-05 pd=3e-05 
+ nrs=3.00641 nrd=2 
md219 296 6 27 27 nenh l=3e-06 w=6e-06 
+ as=1.08231e-10 ad=7.2e-11 ps=2.9923e-05 pd=3e-05 
+ nrs=3.00641 nrd=2 
md220 27 83 82 27 nenh l=3e-06 w=1.2e-05 
+ as=1.35e-10 ad=2.16461e-10 ps=3.6e-05 pd=5.98461e-05 
+ nrs=0.9375 nrd=1.5032 
md221 84 85 27 27 nenh l=3e-06 w=1.2e-05 
+ as=2.16461e-10 ad=1.35e-10 ps=5.98461e-05 pd=3.6e-05 
+ nrs=1.5032 nrd=0.9375 
md222 27 87 86 27 nenh l=3e-06 w=1.2e-05 
+ as=1.35e-10 ad=2.16461e-10 ps=3.6e-05 pd=5.98461e-05 
+ nrs=0.9375 nrd=1.5032 
md223 88 89 27 27 nenh l=3e-06 w=1.2e-05 
+ as=2.16461e-10 ad=1.35e-10 ps=5.98461e-05 pd=3.6e-05 
+ nrs=1.5032 nrd=0.9375 
md224 27 78 298 27 nenh l=3e-06 w=1.2e-05 
+ as=2.43e-10 ad=2.16461e-10 ps=5.4e-05 pd=5.98461e-05 
+ nrs=1.6875 nrd=1.5032 
md225 27 21 299 27 nenh l=3e-06 w=1.2e-05 
+ as=2.43e-10 ad=2.16461e-10 ps=5.4e-05 pd=5.98461e-05 
+ nrs=1.6875 nrd=1.5032 
md226 92 93 27 27 nenh l=3e-06 w=6e-06 
+ as=1.08231e-10 ad=1.22625e-10 ps=2.9923e-05 pd=5.325e-05 
+ nrs=3.00641 nrd=3.40625 
md227 94 95 27 27 nenh l=3e-06 w=6e-06 
+ as=1.08231e-10 ad=1.22625e-10 ps=2.9923e-05 pd=5.325e-05 
+ nrs=3.00641 nrd=3.40625 
md228 27 98 83 27 nenh l=3e-06 w=1.2e-05 
+ as=1.35e-10 ad=2.16461e-10 ps=3.6e-05 pd=5.98461e-05 
+ nrs=0.9375 nrd=1.5032 
md229 85 99 27 27 nenh l=3e-06 w=1.2e-05 
+ as=2.16461e-10 ad=1.35e-10 ps=5.98461e-05 pd=3.6e-05 
+ nrs=1.5032 nrd=0.9375 
md230 27 100 87 27 nenh l=3e-06 w=1.2e-05 
+ as=1.35e-10 ad=2.16461e-10 ps=3.6e-05 pd=5.98461e-05 
+ nrs=0.9375 nrd=1.5032 
md231 89 101 27 27 nenh l=3e-06 w=1.2e-05 
+ as=2.16461e-10 ad=1.35e-10 ps=5.98461e-05 pd=3.6e-05 
+ nrs=1.5032 nrd=0.9375 
md232 27 97 300 27 nenh l=3e-06 w=6e-06 
+ as=1.305e-10 ad=1.08231e-10 ps=4.95e-05 pd=2.9923e-05 
+ nrs=3.625 nrd=3.00641 
md233 27 91 301 27 nenh l=3e-06 w=6e-06 
+ as=1.305e-10 ad=1.08231e-10 ps=4.95e-05 pd=2.9923e-05 
+ nrs=3.625 nrd=3.00641 
md234 27 294 302 27 nenh l=3e-06 w=6e-06 
+ as=9.59999e-11 ad=1.08231e-10 ps=3.79999e-05 pd=2.9923e-05 
+ nrs=2.66666 nrd=3.00641 