ram2k.sp SPICE FILE
.model nenh nmos
+ level = 2
+   vto = 0.761   kp = 3.843e-05   gamma = 0.639243
+   phi = 0.31
+
+   cgso = 3.54e-10   cgdo = 3.54e-10
+   rsh = 66   cj = 0.000343
+   mj = 1.067   cjsw = 1.83e-10   mjsw = 0.195
+   tox = 2.41e-08   nsub = 1.066e+16
+   nss = 3e+10   nfs = 4.55168e+12   tpg = 1
+   xj = 9e-07   ld = -1.68e-07   uo = 790
+   ucrit = 174667   uexp = 0.0461235
+   vmax = 177269   neff = 4.6883
+
+   delta = 0
.model penh pmos
+ level = 2
+   vto = -0.79   kp = 1.601e-05   gamma = 0.618101
+   phi = 0.541111
+
+   cgso = 4.01e-10   cgdo = 4.01e-10
+   rsh = 165   cj = 0.000499
+   mj = 0.341   cjsw = 2.34e-10   mjsw = 0.307
+   tox = 2.41e-08   nsub = 6.57544e+16
+   nss = 3e+10   nfs = 1.66844e+11   tpg = -1
+   xj = 1.12799e-07   ld = -1.38e-07   uo = 235
+   ucrit = 637449   uexp = 0.0888696
+   vmax = 63253.3   neff = 0.64354
+
+   delta = 0
m0 3 5 4 0 nenh l=1.1e-06 w=2.1e-06 
+ as=6.68e-12 ad=7.84e-12 ps=1.355e-05 pd=1.54e-05 
+ nrs=1.52 nrd=1.78 
m1 3 6 4 0 nenh l=1.1e-06 w=2.1e-06 
+ as=6.68e-12 ad=7.84e-12 ps=1.355e-05 pd=1.54e-05 
+ nrs=1.52 nrd=1.78 
m2 3 7 4 0 nenh l=1.1e-06 w=2.1e-06 
+ as=6.68e-12 ad=7.84e-12 ps=1.355e-05 pd=1.54e-05 
+ nrs=1.52 nrd=1.78 
m3 3 8 4 0 nenh l=1.1e-06 w=2.1e-06 
+ as=6.68e-12 ad=7.84e-12 ps=1.355e-05 pd=1.54e-05 
+ nrs=1.52 nrd=1.78 
m4 9 5 10 0 nenh l=1.1e-06 w=2.1e-06 
+ as=7.84e-12 ad=4.54e-12 ps=1.54e-05 pd=9.35e-06 
+ nrs=1.78 nrd=1.03 
m5 9 6 10 0 nenh l=1.1e-06 w=2.1e-06 
+ as=7.84e-12 ad=4.54e-12 ps=1.54e-05 pd=9.35e-06 
+ nrs=1.78 nrd=1.03 
m6 9 7 10 0 nenh l=1.1e-06 w=2.1e-06 
+ as=7.84e-12 ad=4.54e-12 ps=1.54e-05 pd=9.35e-06 
+ nrs=1.78 nrd=1.03 
m7 9 8 10 0 nenh l=1.1e-06 w=2.1e-06 
+ as=7.84e-12 ad=4.54e-12 ps=1.54e-05 pd=9.35e-06 
+ nrs=1.78 nrd=1.03 
m8 11 5 12 0 nenh l=1.1e-06 w=2.1e-06 
+ as=6.68e-12 ad=5.23e-12 ps=1.355e-05 pd=1.027e-05 
+ nrs=1.52 nrd=1.19 
m9 11 6 12 0 nenh l=1.1e-06 w=2.1e-06 
+ as=6.68e-12 ad=5.23e-12 ps=1.355e-05 pd=1.027e-05 
+ nrs=1.52 nrd=1.19 
m10 11 7 12 0 nenh l=1.1e-06 w=2.1e-06 
+ as=6.68e-12 ad=5.23e-12 ps=1.355e-05 pd=1.027e-05 
+ nrs=1.52 nrd=1.19 
m11 11 8 12 0 nenh l=1.1e-06 w=2.1e-06 
+ as=6.68e-12 ad=5.23e-12 ps=1.355e-05 pd=1.027e-05 
+ nrs=1.52 nrd=1.19 
m12 13 5 14 0 nenh l=1.1e-06 w=2.1e-06 
+ as=7.68e-12 ad=4.54e-12 ps=1.493e-05 pd=9.35e-06 
+ nrs=1.74 nrd=1.03 
m13 13 6 14 0 nenh l=1.1e-06 w=2.1e-06 
+ as=7.68e-12 ad=4.54e-12 ps=1.493e-05 pd=9.35e-06 
+ nrs=1.74 nrd=1.03 
m14 13 7 14 0 nenh l=1.1e-06 w=2.1e-06 
+ as=7.68e-12 ad=4.54e-12 ps=1.493e-05 pd=9.35e-06 
+ nrs=1.74 nrd=1.03 
m15 13 8 14 0 nenh l=1.1e-06 w=2.1e-06 
+ as=7.68e-12 ad=4.54e-12 ps=1.493e-05 pd=9.35e-06 
+ nrs=1.74 nrd=1.03 
m16 15 6 16 0 nenh l=1.1e-06 w=2.1e-06 
+ as=6.68e-12 ad=7.84e-12 ps=1.355e-05 pd=1.54e-05 
+ nrs=1.52 nrd=1.78 
m17 15 5 16 0 nenh l=1.1e-06 w=2.1e-06 
+ as=6.68e-12 ad=7.84e-12 ps=1.355e-05 pd=1.54e-05 
+ nrs=1.52 nrd=1.78 
m18 15 7 16 0 nenh l=1.1e-06 w=2.1e-06 
+ as=6.68e-12 ad=7.84e-12 ps=1.355e-05 pd=1.54e-05 
+ nrs=1.52 nrd=1.78 
m19 15 17 16 0 nenh l=1.1e-06 w=2.1e-06 
+ as=6.68e-12 ad=7.84e-12 ps=1.355e-05 pd=1.54e-05 
+ nrs=1.52 nrd=1.78 
m20 18 5 19 0 nenh l=1.1e-06 w=2.1e-06 
+ as=5.23e-12 ad=4.54e-12 ps=1.027e-05 pd=9.35e-06 
+ nrs=1.19 nrd=1.03 
m21 18 6 19 0 nenh l=1.1e-06 w=2.1e-06 
+ as=5.23e-12 ad=4.54e-12 ps=1.027e-05 pd=9.35e-06 
+ nrs=1.19 nrd=1.03 
m22 18 7 19 0 nenh l=1.1e-06 w=2.1e-06 
+ as=5.23e-12 ad=4.54e-12 ps=1.027e-05 pd=9.35e-06 
+ nrs=1.19 nrd=1.03 
m23 18 17 19 0 nenh l=1.1e-06 w=2.1e-06 
+ as=5.23e-12 ad=4.54e-12 ps=1.027e-05 pd=9.35e-06 
+ nrs=1.19 nrd=1.03 
m24 20 5 21 0 nenh l=1.1e-06 w=2.1e-06 
+ as=6.15e-12 ad=5.23e-12 ps=1.145e-05 pd=1.027e-05 
+ nrs=1.39 nrd=1.19 
m25 20 6 21 0 nenh l=1.1e-06 w=2.1e-06 
+ as=6.15e-12 ad=5.23e-12 ps=1.145e-05 pd=1.027e-05 
+ nrs=1.39 nrd=1.19 
m26 20 7 21 0 nenh l=1.1e-06 w=2.1e-06 
+ as=6.15e-12 ad=5.23e-12 ps=1.145e-05 pd=1.027e-05 
+ nrs=1.39 nrd=1.19 
m27 20 17 21 0 nenh l=1.1e-06 w=2.1e-06 
+ as=6.15e-12 ad=5.23e-12 ps=1.145e-05 pd=1.027e-05 
+ nrs=1.39 nrd=1.19 
m28 22 5 23 0 nenh l=1.1e-06 w=2.1e-06 
+ as=5.06e-12 ad=4.54e-12 ps=9.8e-06 pd=9.35e-06 
+ nrs=1.15 nrd=1.03 
m29 22 6 23 0 nenh l=1.1e-06 w=2.1e-06 
+ as=5.06e-12 ad=4.54e-12 ps=9.8e-06 pd=9.35e-06 
+ nrs=1.15 nrd=1.03 
m30 22 7 23 0 nenh l=1.1e-06 w=2.1e-06 
+ as=5.06e-12 ad=4.54e-12 ps=9.8e-06 pd=9.35e-06 
+ nrs=1.15 nrd=1.03 
m31 22 17 23 0 nenh l=1.1e-06 w=2.1e-06 
+ as=5.06e-12 ad=4.54e-12 ps=9.8e-06 pd=9.35e-06 
+ nrs=1.15 nrd=1.03 
m32 24 5 25 0 nenh l=1.1e-06 w=2.1e-06 
+ as=6.68e-12 ad=7.84e-12 ps=1.355e-05 pd=1.54e-05 
+ nrs=1.52 nrd=1.78 
m33 24 6 25 0 nenh l=1.1e-06 w=2.1e-06 
+ as=6.68e-12 ad=7.84e-12 ps=1.355e-05 pd=1.54e-05 
+ nrs=1.52 nrd=1.78 
m34 24 8 25 0 nenh l=1.1e-06 w=2.1e-06 
+ as=6.68e-12 ad=7.84e-12 ps=1.355e-05 pd=1.54e-05 
+ nrs=1.52 nrd=1.78 
m35 24 26 25 0 nenh l=1.1e-06 w=2.1e-06 
+ as=6.68e-12 ad=7.84e-12 ps=1.355e-05 pd=1.54e-05 
+ nrs=1.52 nrd=1.78 
m36 27 5 28 0 nenh l=1.1e-06 w=2.1e-06 
+ as=7.84e-12 ad=6.68e-12 ps=1.54e-05 pd=1.355e-05 
+ nrs=1.78 nrd=1.52 
m37 27 6 28 0 nenh l=1.1e-06 w=2.1e-06 
+ as=7.84e-12 ad=6.68e-12 ps=1.54e-05 pd=1.355e-05 
+ nrs=1.78 nrd=1.52 
m38 27 8 28 0 nenh l=1.1e-06 w=2.1e-06 
+ as=7.84e-12 ad=6.68e-12 ps=1.54e-05 pd=1.355e-05 
+ nrs=1.78 nrd=1.52 
m39 27 26 28 0 nenh l=1.1e-06 w=2.1e-06 
+ as=7.84e-12 ad=6.68e-12 ps=1.54e-05 pd=1.355e-05 
+ nrs=1.78 nrd=1.52 
m40 29 5 30 0 nenh l=1.1e-06 w=2.1e-06 
+ as=4.54e-12 ad=5.23e-12 ps=9.35e-06 pd=1.027e-05 
+ nrs=1.03 nrd=1.19 
m41 29 6 30 0 nenh l=1.1e-06 w=2.1e-06 
+ as=4.54e-12 ad=5.23e-12 ps=9.35e-06 pd=1.027e-05 
+ nrs=1.03 nrd=1.19 
m42 29 8 30 0 nenh l=1.1e-06 w=2.1e-06 
+ as=4.54e-12 ad=5.23e-12 ps=9.35e-06 pd=1.027e-05 
+ nrs=1.03 nrd=1.19 
m43 29 26 30 0 nenh l=1.1e-06 w=2.1e-06 
+ as=4.54e-12 ad=5.23e-12 ps=9.35e-06 pd=1.027e-05 
+ nrs=1.03 nrd=1.19 
m44 31 5 32 0 nenh l=1.1e-06 w=2.1e-06 
+ as=5.06e-12 ad=4.54e-12 ps=9.68e-06 pd=9.35e-06 
+ nrs=1.15 nrd=1.03 
m45 31 6 32 0 nenh l=1.1e-06 w=2.1e-06 
+ as=5.06e-12 ad=4.54e-12 ps=9.68e-06 pd=9.35e-06 
+ nrs=1.15 nrd=1.03 
m46 31 8 32 0 nenh l=1.1e-06 w=2.1e-06 
+ as=5.06e-12 ad=4.54e-12 ps=9.68e-06 pd=9.35e-06 
+ nrs=1.15 nrd=1.03 
m47 31 26 32 0 nenh l=1.1e-06 w=2.1e-06 
+ as=5.06e-12 ad=4.54e-12 ps=9.68e-06 pd=9.35e-06 
+ nrs=1.15 nrd=1.03 
m48 33 5 34 0 nenh l=1.1e-06 w=2.1e-06 
+ as=6.68e-12 ad=7.84e-12 ps=1.355e-05 pd=1.54e-05 
+ nrs=1.52 nrd=1.78 
m49 33 6 34 0 nenh l=1.1e-06 w=2.1e-06 
+ as=6.68e-12 ad=7.84e-12 ps=1.355e-05 pd=1.54e-05 
+ nrs=1.52 nrd=1.78 
m50 33 26 34 0 nenh l=1.1e-06 w=2.1e-06 
+ as=6.68e-12 ad=7.84e-12 ps=1.355e-05 pd=1.54e-05 
+ nrs=1.52 nrd=1.78 
m51 33 17 34 0 nenh l=1.1e-06 w=2.1e-06 
+ as=6.68e-12 ad=7.84e-12 ps=1.355e-05 pd=1.54e-05 
+ nrs=1.52 nrd=1.78 
m52 35 5 36 0 nenh l=1.1e-06 w=2.1e-06 
+ as=7.84e-12 ad=6.68e-12 ps=1.54e-05 pd=1.355e-05 
+ nrs=1.78 nrd=1.52 
m53 35 6 36 0 nenh l=1.1e-06 w=2.1e-06 
+ as=7.84e-12 ad=6.68e-12 ps=1.54e-05 pd=1.355e-05 
+ nrs=1.78 nrd=1.52 
m54 35 26 36 0 nenh l=1.1e-06 w=2.1e-06 
+ as=7.84e-12 ad=6.68e-12 ps=1.54e-05 pd=1.355e-05 
+ nrs=1.78 nrd=1.52 
m55 35 17 36 0 nenh l=1.1e-06 w=2.1e-06 
+ as=7.84e-12 ad=6.68e-12 ps=1.54e-05 pd=1.355e-05 
+ nrs=1.78 nrd=1.52 
m56 37 5 38 0 nenh l=1.1e-06 w=2.1e-06 
+ as=4.54e-12 ad=5.23e-12 ps=9.35e-06 pd=1.027e-05 
+ nrs=1.03 nrd=1.19 
m57 37 6 38 0 nenh l=1.1e-06 w=2.1e-06 
+ as=4.54e-12 ad=5.23e-12 ps=9.35e-06 pd=1.027e-05 
+ nrs=1.03 nrd=1.19 
m58 37 26 38 0 nenh l=1.1e-06 w=2.1e-06 
+ as=4.54e-12 ad=5.23e-12 ps=9.35e-06 pd=1.027e-05 
+ nrs=1.03 nrd=1.19 
m59 37 17 38 0 nenh l=1.1e-06 w=2.1e-06 
+ as=4.54e-12 ad=5.23e-12 ps=9.35e-06 pd=1.027e-05 
+ nrs=1.03 nrd=1.19 
m60 39 5 40 0 nenh l=1.1e-06 w=2.1e-06 
+ as=5.06e-12 ad=4.54e-12 ps=9.8e-06 pd=9.35e-06 
+ nrs=1.15 nrd=1.03 
m61 39 6 40 0 nenh l=1.1e-06 w=2.1e-06 
+ as=5.06e-12 ad=4.54e-12 ps=9.8e-06 pd=9.35e-06 
+ nrs=1.15 nrd=1.03 
m62 39 26 40 0 nenh l=1.1e-06 w=2.1e-06 
+ as=5.06e-12 ad=4.54e-12 ps=9.8e-06 pd=9.35e-06 
+ nrs=1.15 nrd=1.03 
m63 39 17 40 0 nenh l=1.1e-06 w=2.1e-06 
+ as=5.06e-12 ad=4.54e-12 ps=9.8e-06 pd=9.35e-06 
+ nrs=1.15 nrd=1.03 
m64 41 5 42 0 nenh l=1.1e-06 w=2.1e-06 
+ as=5.21e-12 ad=6.21e-12 ps=1.031e-05 pd=1.213e-05 
+ nrs=1.18 nrd=1.41 
m65 41 7 42 0 nenh l=1.1e-06 w=2.1e-06 
+ as=5.21e-12 ad=6.21e-12 ps=1.031e-05 pd=1.213e-05 
+ nrs=1.18 nrd=1.41 
m66 41 43 42 0 nenh l=1.1e-06 w=2.1e-06 
+ as=5.21e-12 ad=6.21e-12 ps=1.031e-05 pd=1.213e-05 
+ nrs=1.18 nrd=1.41 
m67 41 8 42 0 nenh l=1.1e-06 w=2.1e-06 
+ as=5.21e-12 ad=6.21e-12 ps=1.031e-05 pd=1.213e-05 
+ nrs=1.18 nrd=1.41 
m68 44 5 45 0 nenh l=1.1e-06 w=2.1e-06 
+ as=6.21e-12 ad=5.35e-12 ps=1.213e-05 pd=1.088e-05 
+ nrs=1.41 nrd=1.21 
m69 44 7 45 0 nenh l=1.1e-06 w=2.1e-06 
+ as=6.21e-12 ad=5.35e-12 ps=1.213e-05 pd=1.088e-05 
+ nrs=1.41 nrd=1.21 
m70 44 43 45 0 nenh l=1.1e-06 w=2.1e-06 
+ as=6.21e-12 ad=5.35e-12 ps=1.213e-05 pd=1.088e-05 
+ nrs=1.41 nrd=1.21 
m71 44 8 45 0 nenh l=1.1e-06 w=2.1e-06 
+ as=6.21e-12 ad=5.35e-12 ps=1.213e-05 pd=1.088e-05 
+ nrs=1.41 nrd=1.21 
m72 46 5 47 0 nenh l=1.1e-06 w=2.1e-06 
+ as=5.35e-12 ad=6.21e-12 ps=1.088e-05 pd=1.213e-05 
+ nrs=1.21 nrd=1.41 
m73 46 7 47 0 nenh l=1.1e-06 w=2.1e-06 
+ as=5.35e-12 ad=6.21e-12 ps=1.088e-05 pd=1.213e-05 
+ nrs=1.21 nrd=1.41 
m74 46 43 47 0 nenh l=1.1e-06 w=2.1e-06 
+ as=5.35e-12 ad=6.21e-12 ps=1.088e-05 pd=1.213e-05 
+ nrs=1.21 nrd=1.41 
m75 46 8 47 0 nenh l=1.1e-06 w=2.1e-06 
+ as=5.35e-12 ad=6.21e-12 ps=1.088e-05 pd=1.213e-05 
+ nrs=1.21 nrd=1.41 
m76 48 5 49 0 nenh l=1.1e-06 w=2.1e-06 
+ as=6.04e-12 ad=3.88e-12 ps=1.167e-05 pd=8.5e-06 
+ nrs=1.37 nrd=0.88 
m77 48 7 49 0 nenh l=1.1e-06 w=2.1e-06 
+ as=6.04e-12 ad=3.88e-12 ps=1.167e-05 pd=8.5e-06 
+ nrs=1.37 nrd=0.88 
m78 48 43 49 0 nenh l=1.1e-06 w=2.1e-06 
+ as=6.04e-12 ad=3.88e-12 ps=1.167e-05 pd=8.5e-06 
+ nrs=1.37 nrd=0.88 
m79 48 8 49 0 nenh l=1.1e-06 w=2.1e-06 
+ as=6.04e-12 ad=3.88e-12 ps=1.167e-05 pd=8.5e-06 
+ nrs=1.37 nrd=0.88 
m80 50 5 51 0 nenh l=1.1e-06 w=2.1e-06 
+ as=5.35e-12 ad=6.21e-12 ps=1.088e-05 pd=1.213e-05 
+ nrs=1.21 nrd=1.41 
m81 50 7 51 0 nenh l=1.1e-06 w=2.1e-06 
+ as=5.35e-12 ad=6.21e-12 ps=1.088e-05 pd=1.213e-05 
+ nrs=1.21 nrd=1.41 
m82 50 43 51 0 nenh l=1.1e-06 w=2.1e-06 
+ as=5.35e-12 ad=6.21e-12 ps=1.088e-05 pd=1.213e-05 
+ nrs=1.21 nrd=1.41 
m83 50 17 51 0 nenh l=1.1e-06 w=2.1e-06 
+ as=5.35e-12 ad=6.21e-12 ps=1.088e-05 pd=1.213e-05 
+ nrs=1.21 nrd=1.41 
m84 52 5 53 0 nenh l=1.1e-06 w=2.1e-06 
+ as=6.21e-12 ad=5.35e-12 ps=1.213e-05 pd=1.088e-05 
+ nrs=1.41 nrd=1.21 
m85 52 7 53 0 nenh l=1.1e-06 w=2.1e-06 
+ as=6.21e-12 ad=5.35e-12 ps=1.213e-05 pd=1.088e-05 
+ nrs=1.41 nrd=1.21 
m86 52 43 53 0 nenh l=1.1e-06 w=2.1e-06 
+ as=6.21e-12 ad=5.35e-12 ps=1.213e-05 pd=1.088e-05 
+ nrs=1.41 nrd=1.21 
m87 52 17 53 0 nenh l=1.1e-06 w=2.1e-06 
+ as=6.21e-12 ad=5.35e-12 ps=1.213e-05 pd=1.088e-05 
+ nrs=1.41 nrd=1.21 
m88 54 5 55 0 nenh l=1.1e-06 w=2.1e-06 
+ as=5.35e-12 ad=6.21e-12 ps=1.088e-05 pd=1.213e-05 
+ nrs=1.21 nrd=1.41 
m89 54 7 55 0 nenh l=1.1e-06 w=2.1e-06 
+ as=5.35e-12 ad=6.21e-12 ps=1.088e-05 pd=1.213e-05 
+ nrs=1.21 nrd=1.41 
m90 54 43 55 0 nenh l=1.1e-06 w=2.1e-06 
+ as=5.35e-12 ad=6.21e-12 ps=1.088e-05 pd=1.213e-05 
+ nrs=1.21 nrd=1.41 
m91 54 17 55 0 nenh l=1.1e-06 w=2.1e-06 
+ as=5.35e-12 ad=6.21e-12 ps=1.088e-05 pd=1.213e-05 
+ nrs=1.21 nrd=1.41 
m92 56 5 57 0 nenh l=1.1e-06 w=2.1e-06 
+ as=6.04e-12 ad=5.35e-12 ps=1.167e-05 pd=1.088e-05 
+ nrs=1.37 nrd=1.21 
m93 56 7 57 0 nenh l=1.1e-06 w=2.1e-06 
+ as=6.04e-12 ad=5.35e-12 ps=1.167e-05 pd=1.088e-05 
+ nrs=1.37 nrd=1.21 
m94 56 43 57 0 nenh l=1.1e-06 w=2.1e-06 
+ as=6.04e-12 ad=5.35e-12 ps=1.167e-05 pd=1.088e-05 
+ nrs=1.37 nrd=1.21 
m95 56 17 57 0 nenh l=1.1e-06 w=2.1e-06 
+ as=6.04e-12 ad=5.35e-12 ps=1.167e-05 pd=1.088e-05 
+ nrs=1.37 nrd=1.21 
m96 58 5 59 0 nenh l=1.1e-06 w=2.1e-06 
+ as=5.35e-12 ad=2.94e-12 ps=1.088e-05 pd=6.18e-06 
+ nrs=1.21 nrd=0.67 
m97 58 43 59 0 nenh l=1.1e-06 w=2.1e-06 
+ as=5.35e-12 ad=2.94e-12 ps=1.088e-05 pd=6.18e-06 
+ nrs=1.21 nrd=0.67 
m98 58 8 59 0 nenh l=1.1e-06 w=2.1e-06 
+ as=5.35e-12 ad=2.94e-12 ps=1.088e-05 pd=6.18e-06 
+ nrs=1.21 nrd=0.67 
m99 58 26 59 0 nenh l=1.1e-06 w=2.1e-06 
+ as=5.35e-12 ad=2.94e-12 ps=1.088e-05 pd=6.18e-06 
+ nrs=1.21 nrd=0.67 
m100 60 5 61 0 nenh l=1.1e-06 w=2.1e-06 
+ as=6.21e-12 ad=5.35e-12 ps=1.213e-05 pd=1.088e-05 
+ nrs=1.41 nrd=1.21 
m101 60 43 61 0 nenh l=1.1e-06 w=2.1e-06 
+ as=6.21e-12 ad=5.35e-12 ps=1.213e-05 pd=1.088e-05 
+ nrs=1.41 nrd=1.21 
m102 60 8 61 0 nenh l=1.1e-06 w=2.1e-06 
+ as=6.21e-12 ad=5.35e-12 ps=1.213e-05 pd=1.088e-05 
+ nrs=1.41 nrd=1.21 
m103 60 26 61 0 nenh l=1.1e-06 w=2.1e-06 
+ as=6.21e-12 ad=5.35e-12 ps=1.213e-05 pd=1.088e-05 
+ nrs=1.41 nrd=1.21 
m104 62 5 63 0 nenh l=1.1e-06 w=2.1e-06 
+ as=5.35e-12 ad=6.21e-12 ps=1.088e-05 pd=1.213e-05 
+ nrs=1.21 nrd=1.41 
m105 62 43 63 0 nenh l=1.1e-06 w=2.1e-06 
+ as=5.35e-12 ad=6.21e-12 ps=1.088e-05 pd=1.213e-05 
+ nrs=1.21 nrd=1.41 
m106 62 8 63 0 nenh l=1.1e-06 w=2.1e-06 
+ as=5.35e-12 ad=6.21e-12 ps=1.088e-05 pd=1.213e-05 
+ nrs=1.21 nrd=1.41 
m107 62 26 63 0 nenh l=1.1e-06 w=2.1e-06 
+ as=5.35e-12 ad=6.21e-12 ps=1.088e-05 pd=1.213e-05 
+ nrs=1.21 nrd=1.41 
m108 64 5 65 0 nenh l=1.1e-06 w=2.1e-06 
+ as=6.04e-12 ad=5.35e-12 ps=1.167e-05 pd=1.088e-05 
+ nrs=1.37 nrd=1.21 
m109 64 43 65 0 nenh l=1.1e-06 w=2.1e-06 
+ as=6.04e-12 ad=5.35e-12 ps=1.167e-05 pd=1.088e-05 
+ nrs=1.37 nrd=1.21 
m110 64 8 65 0 nenh l=1.1e-06 w=2.1e-06 
+ as=6.04e-12 ad=5.35e-12 ps=1.167e-05 pd=1.088e-05 
+ nrs=1.37 nrd=1.21 
m111 64 26 65 0 nenh l=1.1e-06 w=2.1e-06 
+ as=6.04e-12 ad=5.35e-12 ps=1.167e-05 pd=1.088e-05 
+ nrs=1.37 nrd=1.21 
m112 66 5 67 0 nenh l=1.1e-06 w=2.1e-06 
+ as=5.35e-12 ad=6.21e-12 ps=1.088e-05 pd=1.213e-05 
+ nrs=1.21 nrd=1.41 
m113 66 43 67 0 nenh l=1.1e-06 w=2.1e-06 
+ as=5.35e-12 ad=6.21e-12 ps=1.088e-05 pd=1.213e-05 
+ nrs=1.21 nrd=1.41 
m114 66 26 67 0 nenh l=1.1e-06 w=2.1e-06 
+ as=5.35e-12 ad=6.21e-12 ps=1.088e-05 pd=1.213e-05 
+ nrs=1.21 nrd=1.41 
m115 66 17 67 0 nenh l=1.1e-06 w=2.1e-06 
+ as=5.35e-12 ad=6.21e-12 ps=1.088e-05 pd=1.213e-05 
+ nrs=1.21 nrd=1.41 
m116 68 5 69 0 nenh l=1.1e-06 w=2.1e-06 
+ as=6.21e-12 ad=4.28e-12 ps=1.213e-05 pd=9.16e-06 
+ nrs=1.41 nrd=0.97 
m117 68 43 69 0 nenh l=1.1e-06 w=2.1e-06 
+ as=6.21e-12 ad=4.28e-12 ps=1.213e-05 pd=9.16e-06 
+ nrs=1.41 nrd=0.97 
m118 68 26 69 0 nenh l=1.1e-06 w=2.1e-06 
+ as=6.21e-12 ad=4.28e-12 ps=1.213e-05 pd=9.16e-06 
+ nrs=1.41 nrd=0.97 
m119 68 17 69 0 nenh l=1.1e-06 w=2.1e-06 
+ as=6.21e-12 ad=4.28e-12 ps=1.213e-05 pd=9.16e-06 
+ nrs=1.41 nrd=0.97 
m120 70 5 71 0 nenh l=1.1e-06 w=2.1e-06 
+ as=5.35e-12 ad=6.21e-12 ps=1.088e-05 pd=1.213e-05 
+ nrs=1.21 nrd=1.41 
m121 70 43 71 0 nenh l=1.1e-06 w=2.1e-06 
+ as=5.35e-12 ad=6.21e-12 ps=1.088e-05 pd=1.213e-05 
+ nrs=1.21 nrd=1.41 
m122 70 26 71 0 nenh l=1.1e-06 w=2.1e-06 
+ as=5.35e-12 ad=6.21e-12 ps=1.088e-05 pd=1.213e-05 
+ nrs=1.21 nrd=1.41 
m123 70 17 71 0 nenh l=1.1e-06 w=2.1e-06 
+ as=5.35e-12 ad=6.21e-12 ps=1.088e-05 pd=1.213e-05 
+ nrs=1.21 nrd=1.41 
m124 72 5 73 0 nenh l=1.1e-06 w=2.1e-06 
+ as=6.04e-12 ad=5.35e-12 ps=1.167e-05 pd=1.088e-05 
+ nrs=1.37 nrd=1.21 
m125 72 43 73 0 nenh l=1.1e-06 w=2.1e-06 
+ as=6.04e-12 ad=5.35e-12 ps=1.167e-05 pd=1.088e-05 
+ nrs=1.37 nrd=1.21 
m126 72 26 73 0 nenh l=1.1e-06 w=2.1e-06 
+ as=6.04e-12 ad=5.35e-12 ps=1.167e-05 pd=1.088e-05 
+ nrs=1.37 nrd=1.21 
m127 72 17 73 0 nenh l=1.1e-06 w=2.1e-06 
+ as=6.04e-12 ad=5.35e-12 ps=1.167e-05 pd=1.088e-05 
+ nrs=1.37 nrd=1.21 
m128 74 6 75 0 nenh l=1.1e-06 w=2.1e-06 
+ as=6.68e-12 ad=7.84e-12 ps=1.355e-05 pd=1.54e-05 
+ nrs=1.52 nrd=1.78 
m129 74 76 75 0 nenh l=1.1e-06 w=2.1e-06 
+ as=6.68e-12 ad=7.84e-12 ps=1.355e-05 pd=1.54e-05 
+ nrs=1.52 nrd=1.78 
m130 74 7 75 0 nenh l=1.1e-06 w=2.1e-06 
+ as=6.68e-12 ad=7.84e-12 ps=1.355e-05 pd=1.54e-05 
+ nrs=1.52 nrd=1.78 
m131 74 8 75 0 nenh l=1.1e-06 w=2.1e-06 
+ as=6.68e-12 ad=7.84e-12 ps=1.355e-05 pd=1.54e-05 
+ nrs=1.52 nrd=1.78 
m132 77 6 78 0 nenh l=1.1e-06 w=2.1e-06 
+ as=5.23e-12 ad=4.54e-12 ps=1.027e-05 pd=9.35e-06 
+ nrs=1.19 nrd=1.03 
m133 77 76 78 0 nenh l=1.1e-06 w=2.1e-06 
+ as=5.23e-12 ad=4.54e-12 ps=1.027e-05 pd=9.35e-06 
+ nrs=1.19 nrd=1.03 
m134 77 7 78 0 nenh l=1.1e-06 w=2.1e-06 
+ as=5.23e-12 ad=4.54e-12 ps=1.027e-05 pd=9.35e-06 
+ nrs=1.19 nrd=1.03 
m135 77 8 78 0 nenh l=1.1e-06 w=2.1e-06 
+ as=5.23e-12 ad=4.54e-12 ps=1.027e-05 pd=9.35e-06 
+ nrs=1.19 nrd=1.03 
m136 79 6 80 0 nenh l=1.1e-06 w=2.1e-06 
+ as=4.54e-12 ad=5.23e-12 ps=9.35e-06 pd=8.98e-06 
+ nrs=1.03 nrd=1.19 
m137 79 76 80 0 nenh l=1.1e-06 w=2.1e-06 
+ as=4.54e-12 ad=5.23e-12 ps=9.35e-06 pd=8.98e-06 
+ nrs=1.03 nrd=1.19 
m138 79 7 80 0 nenh l=1.1e-06 w=2.1e-06 
+ as=4.54e-12 ad=5.23e-12 ps=9.35e-06 pd=8.98e-06 
+ nrs=1.03 nrd=1.19 
m139 79 8 80 0 nenh l=1.1e-06 w=2.1e-06 
+ as=4.54e-12 ad=5.23e-12 ps=9.35e-06 pd=8.98e-06 
+ nrs=1.03 nrd=1.19 
m140 81 6 82 0 nenh l=1.1e-06 w=2.1e-06 
+ as=5.06e-12 ad=4.54e-12 ps=9.8e-06 pd=9.35e-06 
+ nrs=1.15 nrd=1.03 
m141 81 76 82 0 nenh l=1.1e-06 w=2.1e-06 
+ as=5.06e-12 ad=4.54e-12 ps=9.8e-06 pd=9.35e-06 
+ nrs=1.15 nrd=1.03 
m142 81 7 82 0 nenh l=1.1e-06 w=2.1e-06 
+ as=5.06e-12 ad=4.54e-12 ps=9.8e-06 pd=9.35e-06 
+ nrs=1.15 nrd=1.03 
m143 81 8 82 0 nenh l=1.1e-06 w=2.1e-06 
+ as=5.06e-12 ad=4.54e-12 ps=9.8e-06 pd=9.35e-06 
+ nrs=1.15 nrd=1.03 
m144 83 6 84 0 nenh l=1.1e-06 w=2.1e-06 
+ as=4.54e-12 ad=5.23e-12 ps=9.35e-06 pd=1.027e-05 
+ nrs=1.03 nrd=1.19 
m145 83 76 84 0 nenh l=1.1e-06 w=2.1e-06 
+ as=4.54e-12 ad=5.23e-12 ps=9.35e-06 pd=1.027e-05 
+ nrs=1.03 nrd=1.19 
m146 83 7 84 0 nenh l=1.1e-06 w=2.1e-06 
+ as=4.54e-12 ad=5.23e-12 ps=9.35e-06 pd=1.027e-05 
+ nrs=1.03 nrd=1.19 
m147 83 17 84 0 nenh l=1.1e-06 w=2.1e-06 
+ as=4.54e-12 ad=5.23e-12 ps=9.35e-06 pd=1.027e-05 
+ nrs=1.03 nrd=1.19 
m148 85 6 86 0 nenh l=1.1e-06 w=2.1e-06 
+ as=5.23e-12 ad=4.54e-12 ps=1.027e-05 pd=9.35e-06 
+ nrs=1.19 nrd=1.03 
m149 85 76 86 0 nenh l=1.1e-06 w=2.1e-06 
+ as=5.23e-12 ad=4.54e-12 ps=1.027e-05 pd=9.35e-06 
+ nrs=1.19 nrd=1.03 
m150 85 7 86 0 nenh l=1.1e-06 w=2.1e-06 
+ as=5.23e-12 ad=4.54e-12 ps=1.027e-05 pd=9.35e-06 
+ nrs=1.19 nrd=1.03 
m151 85 17 86 0 nenh l=1.1e-06 w=2.1e-06 
+ as=5.23e-12 ad=4.54e-12 ps=1.027e-05 pd=9.35e-06 
+ nrs=1.19 nrd=1.03 
m152 87 6 88 0 nenh l=1.1e-06 w=2.1e-06 
+ as=4.54e-12 ad=5.23e-12 ps=9.35e-06 pd=1.027e-05 
+ nrs=1.03 nrd=1.19 
m153 87 76 88 0 nenh l=1.1e-06 w=2.1e-06 
+ as=4.54e-12 ad=5.23e-12 ps=9.35e-06 pd=1.027e-05 
+ nrs=1.03 nrd=1.19 
m154 87 7 88 0 nenh l=1.1e-06 w=2.1e-06 
+ as=4.54e-12 ad=5.23e-12 ps=9.35e-06 pd=1.027e-05 
+ nrs=1.03 nrd=1.19 
m155 87 17 88 0 nenh l=1.1e-06 w=2.1e-06 
+ as=4.54e-12 ad=5.23e-12 ps=9.35e-06 pd=1.027e-05 
+ nrs=1.03 nrd=1.19 
m156 89 6 90 0 nenh l=1.1e-06 w=2.1e-06 
+ as=5.72e-12 ad=4.54e-12 ps=1.027e-05 pd=9.35e-06 
+ nrs=1.3 nrd=1.03 
m157 89 76 90 0 nenh l=1.1e-06 w=2.1e-06 
+ as=5.72e-12 ad=4.54e-12 ps=1.027e-05 pd=9.35e-06 
+ nrs=1.3 nrd=1.03 
m158 89 7 90 0 nenh l=1.1e-06 w=2.1e-06 
+ as=5.72e-12 ad=4.54e-12 ps=1.027e-05 pd=9.35e-06 
+ nrs=1.3 nrd=1.03 
m159 89 17 90 0 nenh l=1.1e-06 w=2.1e-06 
+ as=5.72e-12 ad=4.54e-12 ps=1.027e-05 pd=9.35e-06 
+ nrs=1.3 nrd=1.03 
m160 91 6 92 0 nenh l=1.1e-06 w=2.1e-06 
+ as=6.68e-12 ad=7.84e-12 ps=1.355e-05 pd=1.54e-05 
+ nrs=1.52 nrd=1.78 
m161 91 76 92 0 nenh l=1.1e-06 w=2.1e-06 
+ as=6.68e-12 ad=7.84e-12 ps=1.355e-05 pd=1.54e-05 
+ nrs=1.52 nrd=1.78 
m162 91 8 92 0 nenh l=1.1e-06 w=2.1e-06 
+ as=6.68e-12 ad=7.84e-12 ps=1.355e-05 pd=1.54e-05 
+ nrs=1.52 nrd=1.78 
m163 91 26 92 0 nenh l=1.1e-06 w=2.1e-06 
+ as=6.68e-12 ad=7.84e-12 ps=1.355e-05 pd=1.54e-05 
+ nrs=1.52 nrd=1.78 
m164 93 6 94 0 nenh l=1.1e-06 w=2.1e-06 
+ as=5.23e-12 ad=4.54e-12 ps=1.027e-05 pd=9.35e-06 
+ nrs=1.19 nrd=1.03 
m165 93 76 94 0 nenh l=1.1e-06 w=2.1e-06 
+ as=5.23e-12 ad=4.54e-12 ps=1.027e-05 pd=9.35e-06 
+ nrs=1.19 nrd=1.03 
m166 93 8 94 0 nenh l=1.1e-06 w=2.1e-06 
+ as=5.23e-12 ad=4.54e-12 ps=1.027e-05 pd=9.35e-06 
+ nrs=1.19 nrd=1.03 
m167 93 26 94 0 nenh l=1.1e-06 w=2.1e-06 
+ as=5.23e-12 ad=4.54e-12 ps=1.027e-05 pd=9.35e-06 
+ nrs=1.19 nrd=1.03 
m168 95 6 96 0 nenh l=1.1e-06 w=2.1e-06 
+ as=4.54e-12 ad=5.23e-12 ps=9.35e-06 pd=1.027e-05 
+ nrs=1.03 nrd=1.19 
m169 95 76 96 0 nenh l=1.1e-06 w=2.1e-06 
+ as=4.54e-12 ad=5.23e-12 ps=9.35e-06 pd=1.027e-05 
+ nrs=1.03 nrd=1.19 
m170 95 8 96 0 nenh l=1.1e-06 w=2.1e-06 
+ as=4.54e-12 ad=5.23e-12 ps=9.35e-06 pd=1.027e-05 
+ nrs=1.03 nrd=1.19 
m171 95 26 96 0 nenh l=1.1e-06 w=2.1e-06 
+ as=4.54e-12 ad=5.23e-12 ps=9.35e-06 pd=1.027e-05 
+ nrs=1.03 nrd=1.19 
m172 97 6 98 0 nenh l=1.1e-06 w=2.1e-06 
+ as=5.06e-12 ad=4.54e-12 ps=9.8e-06 pd=9.35e-06 
+ nrs=1.15 nrd=1.03 
m173 97 76 98 0 nenh l=1.1e-06 w=2.1e-06 
+ as=5.06e-12 ad=4.54e-12 ps=9.8e-06 pd=9.35e-06 
+ nrs=1.15 nrd=1.03 
m174 97 8 98 0 nenh l=1.1e-06 w=2.1e-06 
+ as=5.06e-12 ad=4.54e-12 ps=9.8e-06 pd=9.35e-06 
+ nrs=1.15 nrd=1.03 
m175 97 26 98 0 nenh l=1.1e-06 w=2.1e-06 
+ as=5.06e-12 ad=4.54e-12 ps=9.8e-06 pd=9.35e-06 
+ nrs=1.15 nrd=1.03 
m176 99 6 100 0 nenh l=1.1e-06 w=2.1e-06 
+ as=6.68e-12 ad=7.84e-12 ps=1.355e-05 pd=1.54e-05 
+ nrs=1.52 nrd=1.78 
m177 99 76 100 0 nenh l=1.1e-06 w=2.1e-06 
+ as=6.68e-12 ad=7.84e-12 ps=1.355e-05 pd=1.54e-05 
+ nrs=1.52 nrd=1.78 
m178 99 26 100 0 nenh l=1.1e-06 w=2.1e-06 
+ as=6.68e-12 ad=7.84e-12 ps=1.355e-05 pd=1.54e-05 
+ nrs=1.52 nrd=1.78 
m179 99 17 100 0 nenh l=1.1e-06 w=2.1e-06 
+ as=6.68e-12 ad=7.84e-12 ps=1.355e-05 pd=1.54e-05 
+ nrs=1.52 nrd=1.78 
m180 101 6 102 0 nenh l=1.1e-06 w=2.1e-06 
+ as=7.84e-12 ad=6.68e-12 ps=1.54e-05 pd=1.355e-05 
+ nrs=1.78 nrd=1.52 
m181 101 76 102 0 nenh l=1.1e-06 w=2.1e-06 
+ as=7.84e-12 ad=6.68e-12 ps=1.54e-05 pd=1.355e-05 
+ nrs=1.78 nrd=1.52 
m182 101 26 102 0 nenh l=1.1e-06 w=2.1e-06 
+ as=7.84e-12 ad=6.68e-12 ps=1.54e-05 pd=1.355e-05 
+ nrs=1.78 nrd=1.52 
m183 101 17 102 0 nenh l=1.1e-06 w=2.1e-06 
+ as=7.84e-12 ad=6.68e-12 ps=1.54e-05 pd=1.355e-05 
+ nrs=1.78 nrd=1.52 
m184 103 6 104 0 nenh l=1.1e-06 w=2.1e-06 
+ as=4.54e-12 ad=5.23e-12 ps=9.35e-06 pd=1.027e-05 
+ nrs=1.03 nrd=1.19 
m185 103 76 104 0 nenh l=1.1e-06 w=2.1e-06 
+ as=4.54e-12 ad=5.23e-12 ps=9.35e-06 pd=1.027e-05 
+ nrs=1.03 nrd=1.19 
m186 103 26 104 0 nenh l=1.1e-06 w=2.1e-06 
+ as=4.54e-12 ad=5.23e-12 ps=9.35e-06 pd=1.027e-05 
+ nrs=1.03 nrd=1.19 
m187 103 17 104 0 nenh l=1.1e-06 w=2.1e-06 
+ as=4.54e-12 ad=5.23e-12 ps=9.35e-06 pd=1.027e-05 
+ nrs=1.03 nrd=1.19 
m188 105 6 106 0 nenh l=1.1e-06 w=2.1e-06 
+ as=5.06e-12 ad=4.54e-12 ps=9.8e-06 pd=9.35e-06 
+ nrs=1.15 nrd=1.03 
m189 105 76 106 0 nenh l=1.1e-06 w=2.1e-06 
+ as=5.06e-12 ad=4.54e-12 ps=9.8e-06 pd=9.35e-06 
+ nrs=1.15 nrd=1.03 
m190 105 26 106 0 nenh l=1.1e-06 w=2.1e-06 
+ as=5.06e-12 ad=4.54e-12 ps=9.8e-06 pd=9.35e-06 
+ nrs=1.15 nrd=1.03 
m191 105 17 106 0 nenh l=1.1e-06 w=2.1e-06 
+ as=5.06e-12 ad=4.54e-12 ps=9.8e-06 pd=9.35e-06 
+ nrs=1.15 nrd=1.03 
m192 107 76 108 0 nenh l=1.1e-06 w=2.1e-06 
+ as=5.35e-12 ad=6.21e-12 ps=1.088e-05 pd=1.213e-05 
+ nrs=1.21 nrd=1.41 
m193 107 7 108 0 nenh l=1.1e-06 w=2.1e-06 
+ as=5.35e-12 ad=6.21e-12 ps=1.088e-05 pd=1.213e-05 
+ nrs=1.21 nrd=1.41 
m194 107 43 108 0 nenh l=1.1e-06 w=2.1e-06 
+ as=5.35e-12 ad=6.21e-12 ps=1.088e-05 pd=1.213e-05 
+ nrs=1.21 nrd=1.41 
m195 107 8 108 0 nenh l=1.1e-06 w=2.1e-06 
+ as=5.35e-12 ad=6.21e-12 ps=1.088e-05 pd=1.213e-05 
+ nrs=1.21 nrd=1.41 
m196 109 76 110 0 nenh l=1.1e-06 w=2.1e-06 
+ as=6.04e-12 ad=5.35e-12 ps=1.155e-05 pd=1.088e-05 
+ nrs=1.37 nrd=1.21 
m197 109 7 110 0 nenh l=1.1e-06 w=2.1e-06 
+ as=6.04e-12 ad=5.35e-12 ps=1.155e-05 pd=1.088e-05 
+ nrs=1.37 nrd=1.21 
m198 109 43 110 0 nenh l=1.1e-06 w=2.1e-06 
+ as=6.04e-12 ad=5.35e-12 ps=1.155e-05 pd=1.088e-05 
+ nrs=1.37 nrd=1.21 
m199 109 8 110 0 nenh l=1.1e-06 w=2.1e-06 
+ as=6.04e-12 ad=5.35e-12 ps=1.155e-05 pd=1.088e-05 
+ nrs=1.37 nrd=1.21 
m200 111 76 112 0 nenh l=1.1e-06 w=2.1e-06 
+ as=5.35e-12 ad=6.21e-12 ps=1.088e-05 pd=1.213e-05 
+ nrs=1.21 nrd=1.41 
m201 111 7 112 0 nenh l=1.1e-06 w=2.1e-06 
+ as=5.35e-12 ad=6.21e-12 ps=1.088e-05 pd=1.213e-05 
+ nrs=1.21 nrd=1.41 
m202 111 43 112 0 nenh l=1.1e-06 w=2.1e-06 
+ as=5.35e-12 ad=6.21e-12 ps=1.088e-05 pd=1.213e-05 
+ nrs=1.21 nrd=1.41 
m203 111 8 112 0 nenh l=1.1e-06 w=2.1e-06 
+ as=5.35e-12 ad=6.21e-12 ps=1.088e-05 pd=1.213e-05 
+ nrs=1.21 nrd=1.41 
m204 113 76 114 0 nenh l=1.1e-06 w=2.1e-06 
+ as=6.04e-12 ad=5.35e-12 ps=1.167e-05 pd=1.088e-05 
+ nrs=1.37 nrd=1.21 
m205 113 7 114 0 nenh l=1.1e-06 w=2.1e-06 
+ as=6.04e-12 ad=5.35e-12 ps=1.167e-05 pd=1.088e-05 
+ nrs=1.37 nrd=1.21 
m206 113 43 114 0 nenh l=1.1e-06 w=2.1e-06 
+ as=6.04e-12 ad=5.35e-12 ps=1.167e-05 pd=1.088e-05 
+ nrs=1.37 nrd=1.21 
m207 113 8 114 0 nenh l=1.1e-06 w=2.1e-06 
+ as=6.04e-12 ad=5.35e-12 ps=1.167e-05 pd=1.088e-05 
+ nrs=1.37 nrd=1.21 
m208 115 76 116 0 nenh l=1.1e-06 w=2.1e-06 
+ as=5.35e-12 ad=6.21e-12 ps=1.088e-05 pd=1.213e-05 
+ nrs=1.21 nrd=1.41 
m209 115 7 116 0 nenh l=1.1e-06 w=2.1e-06 
+ as=5.35e-12 ad=6.21e-12 ps=1.088e-05 pd=1.213e-05 
+ nrs=1.21 nrd=1.41 
m210 115 43 116 0 nenh l=1.1e-06 w=2.1e-06 
+ as=5.35e-12 ad=6.21e-12 ps=1.088e-05 pd=1.213e-05 
+ nrs=1.21 nrd=1.41 
m211 115 17 116 0 nenh l=1.1e-06 w=2.1e-06 
+ as=5.35e-12 ad=6.21e-12 ps=1.088e-05 pd=1.213e-05 
+ nrs=1.21 nrd=1.41 
m212 117 76 118 0 nenh l=1.1e-06 w=2.1e-06 
+ as=6.21e-12 ad=5.35e-12 ps=1.213e-05 pd=1.088e-05 
+ nrs=1.41 nrd=1.21 
m213 117 7 118 0 nenh l=1.1e-06 w=2.1e-06 
+ as=6.21e-12 ad=5.35e-12 ps=1.213e-05 pd=1.088e-05 
+ nrs=1.41 nrd=1.21 
m214 117 43 118 0 nenh l=1.1e-06 w=2.1e-06 
+ as=6.21e-12 ad=5.35e-12 ps=1.213e-05 pd=1.088e-05 
+ nrs=1.41 nrd=1.21 
m215 117 17 118 0 nenh l=1.1e-06 w=2.1e-06 
+ as=6.21e-12 ad=5.35e-12 ps=1.213e-05 pd=1.088e-05 
+ nrs=1.41 nrd=1.21 
m216 119 76 120 0 nenh l=1.1e-06 w=2.1e-06 
+ as=4.81e-12 ad=6.21e-12 ps=8.5e-06 pd=1.213e-05 
+ nrs=1.09 nrd=1.41 
m217 119 7 120 0 nenh l=1.1e-06 w=2.1e-06 
+ as=4.81e-12 ad=6.21e-12 ps=8.5e-06 pd=1.213e-05 
+ nrs=1.09 nrd=1.41 
m218 119 43 120 0 nenh l=1.1e-06 w=2.1e-06 
+ as=4.81e-12 ad=6.21e-12 ps=8.5e-06 pd=1.213e-05 
+ nrs=1.09 nrd=1.41 
m219 119 17 120 0 nenh l=1.1e-06 w=2.1e-06 
+ as=4.81e-12 ad=6.21e-12 ps=8.5e-06 pd=1.213e-05 
+ nrs=1.09 nrd=1.41 
m220 121 76 122 0 nenh l=1.1e-06 w=2.1e-06 
+ as=6.04e-12 ad=5.35e-12 ps=1.167e-05 pd=1.088e-05 
+ nrs=1.37 nrd=1.21 
m221 121 7 122 0 nenh l=1.1e-06 w=2.1e-06 
+ as=6.04e-12 ad=5.35e-12 ps=1.167e-05 pd=1.088e-05 
+ nrs=1.37 nrd=1.21 
m222 121 43 122 0 nenh l=1.1e-06 w=2.1e-06 
+ as=6.04e-12 ad=5.35e-12 ps=1.167e-05 pd=1.088e-05 
+ nrs=1.37 nrd=1.21 
m223 121 17 122 0 nenh l=1.1e-06 w=2.1e-06 
+ as=6.04e-12 ad=5.35e-12 ps=1.167e-05 pd=1.088e-05 
+ nrs=1.37 nrd=1.21 
m224 123 76 124 0 nenh l=1.1e-06 w=2.1e-06 
+ as=5.35e-12 ad=6.21e-12 ps=1.088e-05 pd=1.213e-05 
+ nrs=1.21 nrd=1.41 
m225 123 43 124 0 nenh l=1.1e-06 w=2.1e-06 
+ as=5.35e-12 ad=6.21e-12 ps=1.088e-05 pd=1.213e-05 
+ nrs=1.21 nrd=1.41 
m226 123 8 124 0 nenh l=1.1e-06 w=2.1e-06 
+ as=5.35e-12 ad=6.21e-12 ps=1.088e-05 pd=1.213e-05 
+ nrs=1.21 nrd=1.41 
m227 123 26 124 0 nenh l=1.1e-06 w=2.1e-06 
+ as=5.35e-12 ad=6.21e-12 ps=1.088e-05 pd=1.213e-05 
+ nrs=1.21 nrd=1.41 
m228 125 76 126 0 nenh l=1.1e-06 w=2.1e-06 
+ as=6.21e-12 ad=2.67e-12 ps=1.213e-05 pd=5.92e-06 
+ nrs=1.41 nrd=0.61 
m229 125 43 126 0 nenh l=1.1e-06 w=2.1e-06 
+ as=6.21e-12 ad=2.67e-12 ps=1.213e-05 pd=5.92e-06 
+ nrs=1.41 nrd=0.61 
m230 125 8 126 0 nenh l=1.1e-06 w=2.1e-06 
+ as=6.21e-12 ad=2.67e-12 ps=1.213e-05 pd=5.92e-06 
+ nrs=1.41 nrd=0.61 
m231 125 26 126 0 nenh l=1.1e-06 w=2.1e-06 
+ as=6.21e-12 ad=2.67e-12 ps=1.213e-05 pd=5.92e-06 
+ nrs=1.41 nrd=0.61 
m232 127 76 128 0 nenh l=1.1e-06 w=2.1e-06 
+ as=5.35e-12 ad=6.21e-12 ps=1.088e-05 pd=1.213e-05 
+ nrs=1.21 nrd=1.41 
m233 127 43 128 0 nenh l=1.1e-06 w=2.1e-06 
+ as=5.35e-12 ad=6.21e-12 ps=1.088e-05 pd=1.213e-05 
+ nrs=1.21 nrd=1.41 
m234 127 8 128 0 nenh l=1.1e-06 w=2.1e-06 
+ as=5.35e-12 ad=6.21e-12 ps=1.088e-05 pd=1.213e-05 
+ nrs=1.21 nrd=1.41 
m235 127 26 128 0 nenh l=1.1e-06 w=2.1e-06 
+ as=5.35e-12 ad=6.21e-12 ps=1.088e-05 pd=1.213e-05 
+ nrs=1.21 nrd=1.41 
m236 129 76 130 0 nenh l=1.1e-06 w=2.1e-06 
+ as=6.04e-12 ad=5.35e-12 ps=1.167e-05 pd=1.088e-05 
+ nrs=1.37 nrd=1.21 
m237 129 43 130 0 nenh l=1.1e-06 w=2.1e-06 
+ as=6.04e-12 ad=5.35e-12 ps=1.167e-05 pd=1.088e-05 
+ nrs=1.37 nrd=1.21 
m238 129 8 130 0 nenh l=1.1e-06 w=2.1e-06 
+ as=6.04e-12 ad=5.35e-12 ps=1.167e-05 pd=1.088e-05 
+ nrs=1.37 nrd=1.21 
m239 129 26 130 0 nenh l=1.1e-06 w=2.1e-06 
+ as=6.04e-12 ad=5.35e-12 ps=1.167e-05 pd=1.088e-05 
+ nrs=1.37 nrd=1.21 
m240 131 76 132 0 nenh l=1.1e-06 w=2.1e-06 
+ as=5.35e-12 ad=6.21e-12 ps=1.088e-05 pd=1.213e-05 
+ nrs=1.21 nrd=1.41 
m241 131 43 132 0 nenh l=1.1e-06 w=2.1e-06 
+ as=5.35e-12 ad=6.21e-12 ps=1.088e-05 pd=1.213e-05 
+ nrs=1.21 nrd=1.41 
m242 131 26 132 0 nenh l=1.1e-06 w=2.1e-06 
+ as=5.35e-12 ad=6.21e-12 ps=1.088e-05 pd=1.213e-05 
+ nrs=1.21 nrd=1.41 
m243 131 17 132 0 nenh l=1.1e-06 w=2.1e-06 
+ as=5.35e-12 ad=6.21e-12 ps=1.088e-05 pd=1.213e-05 
+ nrs=1.21 nrd=1.41 
m244 133 76 134 0 nenh l=1.1e-06 w=2.1e-06 
+ as=6.21e-12 ad=5.35e-12 ps=1.213e-05 pd=1.088e-05 
+ nrs=1.41 nrd=1.21 
m245 133 43 134 0 nenh l=1.1e-06 w=2.1e-06 
+ as=6.21e-12 ad=5.35e-12 ps=1.213e-05 pd=1.088e-05 
+ nrs=1.41 nrd=1.21 
m246 133 26 134 0 nenh l=1.1e-06 w=2.1e-06 
+ as=6.21e-12 ad=5.35e-12 ps=1.213e-05 pd=1.088e-05 
+ nrs=1.41 nrd=1.21 
m247 133 17 134 0 nenh l=1.1e-06 w=2.1e-06 
+ as=6.21e-12 ad=5.35e-12 ps=1.213e-05 pd=1.088e-05 
+ nrs=1.41 nrd=1.21 
m248 135 76 136 0 nenh l=1.1e-06 w=2.1e-06 
+ as=5.35e-12 ad=6.21e-12 ps=1.088e-05 pd=1.213e-05 
+ nrs=1.21 nrd=1.41 
m249 135 43 136 0 nenh l=1.1e-06 w=2.1e-06 
+ as=5.35e-12 ad=6.21e-12 ps=1.088e-05 pd=1.213e-05 
+ nrs=1.21 nrd=1.41 
m250 135 26 136 0 nenh l=1.1e-06 w=2.1e-06 
+ as=5.35e-12 ad=6.21e-12 ps=1.088e-05 pd=1.213e-05 
+ nrs=1.21 nrd=1.41 
m251 135 17 136 0 nenh l=1.1e-06 w=2.1e-06 
+ as=5.35e-12 ad=6.21e-12 ps=1.088e-05 pd=1.213e-05 
+ nrs=1.21 nrd=1.41 
m252 137 76 138 0 nenh l=1.1e-06 w=2.1e-06 
+ as=6.04e-12 ad=5.35e-12 ps=1.167e-05 pd=1.088e-05 
+ nrs=1.37 nrd=1.21 
m253 137 43 138 0 nenh l=1.1e-06 w=2.1e-06 