smult20.sp SPICE FILE
.model nenh nmos
+ level = 2
+   vto = 0.688434   kp = 4.769e-05   gamma = 0.399818
+   phi = 0.85
+
+   cgso = 3.54e-10   cgdo = 3.54e-10
+   rsh = 70   cj = 0.000363
+   mj = 0.916   cjsw = 1.83e-10   mjsw = 0.195
+   tox = 2.15e-08   nsub = 1.79246e+16
+   nss = 3e+10   nfs = 10   tpg = 1
+   xj = 9e-07   ld = -8.3e-08   uo = 683.594
+   ucrit = 200   uexp = 0.0177713
+   vmax = 81459.2   neff = 2.18502
+
+   delta = 2.72869
.model penh pmos
+ level = 2
+   vto = -0.635779   kp = 1.91591e-05   gamma = 0.335224
+   phi = 0.85
+
+   cgso = 4.01e-10   cgdo = 4.01e-10
+   rsh = 164   cj = 0.000442
+   mj = 0.3285   cjsw = 2.34e-10   mjsw = 0.307
+   tox = 2.15e-08   nsub = 6e+17
+   nss = 3e+10   nfs = 85.3597   tpg = -1
+   xj = 1e-09   ld = -2.3e-08   uo = 41.2542
+   ucrit = 50408.2   uexp = 0.0976377
+   vmax = 42755.1   neff = 0.0107262
+
+   delta = 4.72482
m0 3 5 4 1 penh l=1.1e-06 w=1.12e-05 
+ as=9.52e-12 ad=2.744e-11 ps=1.29e-05 pd=2.85e-05 
+ nrs=0.08 nrd=0.22 
m1 1 6 3 1 penh l=1.1e-06 w=1.12e-05 
+ as=2.494e-11 ad=9.52e-12 ps=2.114e-05 pd=1.29e-05 
+ nrs=0.2 nrd=0.08 
m2 7 8 1 1 penh l=1.1e-06 w=1.2e-05 
+ as=1.42e-11 ad=2.672e-11 ps=1.45e-05 pd=2.265e-05 
+ nrs=0.1 nrd=0.19 
m3 1 8 7 1 penh l=1.1e-06 w=1.2e-05 
+ as=2.672e-11 ad=1.42e-11 ps=2.265e-05 pd=1.45e-05 
+ nrs=0.19 nrd=0.1 
m4 8 5 1 1 penh l=1.1e-06 w=1.2e-05 
+ as=1.42e-11 ad=2.672e-11 ps=1.45e-05 pd=2.265e-05 
+ nrs=0.1 nrd=0.19 
m5 1 9 8 1 penh l=1.1e-06 w=1.2e-05 
+ as=2.672e-11 ad=1.42e-11 ps=2.265e-05 pd=1.45e-05 
+ nrs=0.19 nrd=0.1 
m6 6 9 1 1 penh l=1.1e-06 w=1.12e-05 
+ as=2.744e-11 ad=2.494e-11 ps=2.85e-05 pd=2.114e-05 
+ nrs=0.22 nrd=0.2 
m7 10 5 11 1 penh l=1.1e-06 w=1.12e-05 
+ as=9.52e-12 ad=2.52e-11 ps=1.29e-05 pd=2.85e-05 
+ nrs=0.08 nrd=0.2 
m8 1 12 10 1 penh l=1.1e-06 w=1.12e-05 
+ as=2.494e-11 ad=9.52e-12 ps=2.114e-05 pd=1.29e-05 
+ nrs=0.2 nrd=0.08 
m9 13 14 1 1 penh l=1.1e-06 w=1.2e-05 
+ as=1.42e-11 ad=2.672e-11 ps=1.45e-05 pd=2.265e-05 
+ nrs=0.1 nrd=0.19 
m10 1 14 13 1 penh l=1.1e-06 w=1.2e-05 
+ as=2.672e-11 ad=1.42e-11 ps=2.265e-05 pd=1.45e-05 
+ nrs=0.19 nrd=0.1 
m11 14 5 1 1 penh l=1.1e-06 w=1.2e-05 
+ as=1.42e-11 ad=2.672e-11 ps=1.45e-05 pd=2.265e-05 
+ nrs=0.1 nrd=0.19 
m12 1 15 14 1 penh l=1.1e-06 w=1.2e-05 
+ as=2.672e-11 ad=1.42e-11 ps=2.265e-05 pd=1.45e-05 
+ nrs=0.19 nrd=0.1 
m13 12 15 1 1 penh l=1.1e-06 w=1.12e-05 
+ as=2.744e-11 ad=2.494e-11 ps=2.85e-05 pd=2.114e-05 
+ nrs=0.22 nrd=0.2 
m14 4 5 0 0 nenh l=1.1e-06 w=8.4e-06 
+ as=1.386e-11 ad=1.665e-11 ps=1.17e-05 pd=1.575e-05 
+ nrs=0.2 nrd=0.24 
m15 0 6 4 0 nenh l=1.1e-06 w=8.4e-06 
+ as=1.665e-11 ad=1.386e-11 ps=1.575e-05 pd=1.17e-05 
+ nrs=0.24 nrd=0.2 
m16 7 4 0 0 nenh l=1.1e-06 w=1.2e-05 
+ as=1.452e-11 ad=2.378e-11 ps=1.45e-05 pd=2.249e-05 
+ nrs=0.1 nrd=0.17 
m17 0 4 7 0 nenh l=1.1e-06 w=1.2e-05 
+ as=2.378e-11 ad=1.452e-11 ps=2.249e-05 pd=1.45e-05 
+ nrs=0.17 nrd=0.1 
m18 16 5 8 0 nenh l=1.1e-06 w=9.6e-06 
+ as=8.16e-12 ad=2.928e-11 ps=1.13e-05 pd=2.53e-05 
+ nrs=0.09 nrd=0.32 
m19 0 9 16 0 nenh l=1.1e-06 w=9.6e-06 
+ as=1.903e-11 ad=8.16e-12 ps=1.799e-05 pd=1.13e-05 
+ nrs=0.21 nrd=0.09 
m20 6 9 0 0 nenh l=1.1e-06 w=5.6e-06 
+ as=1.708e-11 ad=1.11e-11 ps=1.73e-05 pd=1.05e-05 
+ nrs=0.54 nrd=0.35 
m21 1 17 5 1 penh l=1.1e-06 w=1.2e-05 
+ as=2.672e-11 ad=2.572e-11 ps=2.265e-05 pd=2.69e-05 
+ nrs=0.19 nrd=0.18 
m22 18 5 1 1 penh l=1.1e-06 w=1.48e-05 
+ as=2.587e-11 ad=3.295e-11 ps=2.908e-05 pd=2.794e-05 
+ nrs=0.12 nrd=0.15 
m23 17 19 18 1 penh l=1.1e-06 w=2.4e-06 
+ as=9.4e-12 ad=4.19e-12 ps=1.25e-05 pd=4.72e-06 
+ nrs=1.63 nrd=0.73 
m24 11 5 0 0 nenh l=1.1e-06 w=8.4e-06 
+ as=1.386e-11 ad=1.665e-11 ps=1.17e-05 pd=1.575e-05 
+ nrs=0.2 nrd=0.24 
m25 0 12 11 0 nenh l=1.1e-06 w=8.4e-06 
+ as=1.665e-11 ad=1.386e-11 ps=1.575e-05 pd=1.17e-05 
+ nrs=0.24 nrd=0.2 
m26 13 11 0 0 nenh l=1.1e-06 w=1.2e-05 
+ as=1.452e-11 ad=2.378e-11 ps=1.45e-05 pd=2.249e-05 
+ nrs=0.1 nrd=0.17 
m27 0 11 13 0 nenh l=1.1e-06 w=1.2e-05 
+ as=2.378e-11 ad=1.452e-11 ps=2.249e-05 pd=1.45e-05 
+ nrs=0.17 nrd=0.1 
m28 20 5 14 0 nenh l=1.1e-06 w=9.6e-06 
+ as=8.16e-12 ad=2.928e-11 ps=1.13e-05 pd=2.53e-05 
+ nrs=0.09 nrd=0.32 
m29 0 15 20 0 nenh l=1.1e-06 w=9.6e-06 
+ as=1.903e-11 ad=8.16e-12 ps=1.799e-05 pd=1.13e-05 
+ nrs=0.21 nrd=0.09 
m30 12 15 0 0 nenh l=1.1e-06 w=5.6e-06 
+ as=1.708e-11 ad=1.11e-11 ps=1.73e-05 pd=1.05e-05 
+ nrs=0.54 nrd=0.35 
m31 1 22 21 1 penh l=1.1e-06 w=5.6e-06 
+ as=1.247e-11 ad=1.708e-11 ps=1.057e-05 pd=1.73e-05 
+ nrs=0.4 nrd=0.54 
m32 23 21 1 1 penh l=1.1e-06 w=5.6e-06 
+ as=4.76e-12 ad=1.247e-11 ps=7.3e-06 pd=1.057e-05 
+ nrs=0.15 nrd=0.4 
m33 24 25 23 1 penh l=1.1e-06 w=5.6e-06 
+ as=4.76e-12 ad=4.76e-12 ps=7.3e-06 pd=7.3e-06 
+ nrs=0.15 nrd=0.15 
m34 22 26 24 1 penh l=1.1e-06 w=5.6e-06 
+ as=1.708e-11 ad=4.76e-12 ps=1.73e-05 pd=7.3e-06 
+ nrs=0.54 nrd=0.15 
m35 27 28 1 1 penh l=1.1e-06 w=1.16e-05 
+ as=1.386e-11 ad=2.583e-11 ps=1.41e-05 pd=2.19e-05 
+ nrs=0.1 nrd=0.19 
m36 1 28 27 1 penh l=1.1e-06 w=1.16e-05 
+ as=2.583e-11 ad=1.386e-11 ps=2.19e-05 pd=1.41e-05 
+ nrs=0.19 nrd=0.1 
m37 29 30 1 1 penh l=1.1e-06 w=1.08e-05 
+ as=1.059e-11 ad=2.405e-11 ps=1.381e-05 pd=2.039e-05 
+ nrs=0.09 nrd=0.21 
m38 28 31 29 1 penh l=1.1e-06 w=1e-05 
+ as=1.25e-11 ad=9.81e-12 ps=1.25e-05 pd=1.279e-05 
+ nrs=0.13 nrd=0.1 
m39 32 33 28 1 penh l=1.1e-06 w=1e-05 
+ as=9.81e-12 ad=1.25e-11 ps=1.279e-05 pd=1.25e-05 
+ nrs=0.1 nrd=0.13 
m40 1 34 32 1 penh l=1.1e-06 w=1.08e-05 
+ as=2.405e-11 ad=1.059e-11 ps=2.039e-05 pd=1.381e-05 
+ nrs=0.21 nrd=0.09 
m41 34 30 1 1 penh l=1.1e-06 w=5.6e-06 
+ as=1.708e-11 ad=1.247e-11 ps=1.73e-05 pd=1.057e-05 
+ nrs=0.54 nrd=0.4 
m42 0 17 5 0 nenh l=1.1e-06 w=1.12e-05 
+ as=2.22e-11 ad=2.907e-11 ps=2.099e-05 pd=3.163e-05 
+ nrs=0.18 nrd=0.23 
m43 21 19 17 0 nenh l=1.1e-06 w=3.6e-06 
+ as=7.6e-12 ad=1.098e-11 ps=7.28e-06 pd=1.33e-05 
+ nrs=0.59 nrd=0.85 
m44 0 22 21 0 nenh l=1.1e-06 w=5.6e-06 
+ as=1.11e-11 ad=1.182e-11 ps=1.05e-05 pd=1.132e-05 
+ nrs=0.35 nrd=0.38 
m45 35 21 0 0 nenh l=1.1e-06 w=2.8e-06 
+ as=2.38e-12 ad=5.55e-12 ps=4.5e-06 pd=5.25e-06 
+ nrs=0.3 nrd=0.71 
m46 22 19 35 0 nenh l=1.1e-06 w=2.8e-06 
+ as=6.09e-12 ad=2.38e-12 ps=6.74e-06 pd=4.5e-06 
+ nrs=0.78 nrd=0.3 
m47 18 5 0 0 nenh l=1.1e-06 w=1.28e-05 
+ as=2.624e-11 ad=2.537e-11 ps=2.85e-05 pd=2.399e-05 
+ nrs=0.16 nrd=0.15 
m48 22 25 36 0 nenh l=1.1e-06 w=3.6e-06 
+ as=7.83e-12 ad=1.098e-11 ps=8.66e-06 pd=1.33e-05 
+ nrs=0.6 nrd=0.85 
m49 27 26 22 0 nenh l=1.1e-06 w=3.6e-06 
+ as=7.52e-12 ad=7.83e-12 ps=7.76e-06 pd=8.66e-06 
+ nrs=0.58 nrd=0.6 
m50 0 37 22 0 nenh l=1.1e-06 w=2.8e-06 
+ as=5.55e-12 ad=6.09e-12 ps=5.25e-06 pd=6.74e-06 
+ nrs=0.71 nrd=0.78 
m51 27 28 0 0 nenh l=1.1e-06 w=5.6e-06 
+ as=1.169e-11 ad=1.11e-11 ps=1.207e-05 pd=1.05e-05 
+ nrs=0.37 nrd=0.35 
m52 0 28 27 0 nenh l=1.1e-06 w=5.6e-06 
+ as=1.11e-11 ad=1.169e-11 ps=1.05e-05 pd=1.207e-05 
+ nrs=0.35 nrd=0.37 
m53 38 34 0 0 nenh l=1.1e-06 w=1.12e-05 
+ as=1.007e-11 ad=2.22e-11 ps=1.605e-05 pd=2.099e-05 
+ nrs=0.08 nrd=0.18 
m54 28 31 38 0 nenh l=1.1e-06 w=6.8e-06 
+ as=1.122e-11 ad=6.11e-12 ps=1.01e-05 pd=9.75e-06 
+ nrs=0.24 nrd=0.13 
m55 39 33 28 0 nenh l=1.1e-06 w=6.8e-06 
+ as=6.11e-12 ad=1.122e-11 ps=9.75e-06 pd=1.01e-05 
+ nrs=0.13 nrd=0.24 
m56 0 30 39 0 nenh l=1.1e-06 w=1.12e-05 
+ as=2.22e-11 ad=1.007e-11 ps=2.099e-05 pd=1.605e-05 
+ nrs=0.18 nrd=0.08 
m57 34 30 0 0 nenh l=1.1e-06 w=2.8e-06 
+ as=8.54e-12 ad=5.55e-12 ps=1.17e-05 pd=5.25e-06 
+ nrs=1.09 nrd=0.71 
m58 40 42 41 1 penh l=1.1e-06 w=1.12e-05 
+ as=9.52e-12 ad=2.744e-11 ps=1.29e-05 pd=2.85e-05 
+ nrs=0.08 nrd=0.22 
m59 1 43 40 1 penh l=1.1e-06 w=1.12e-05 
+ as=2.494e-11 ad=9.52e-12 ps=2.114e-05 pd=1.29e-05 
+ nrs=0.2 nrd=0.08 
m60 44 45 1 1 penh l=1.1e-06 w=1.2e-05 
+ as=1.42e-11 ad=2.672e-11 ps=1.45e-05 pd=2.265e-05 
+ nrs=0.1 nrd=0.19 
m61 1 45 44 1 penh l=1.1e-06 w=1.2e-05 
+ as=2.672e-11 ad=1.42e-11 ps=2.265e-05 pd=1.45e-05 
+ nrs=0.19 nrd=0.1 
m62 45 42 1 1 penh l=1.1e-06 w=1.2e-05 
+ as=1.42e-11 ad=2.672e-11 ps=1.45e-05 pd=2.265e-05 
+ nrs=0.1 nrd=0.19 
m63 1 9 45 1 penh l=1.1e-06 w=1.2e-05 
+ as=2.672e-11 ad=1.42e-11 ps=2.265e-05 pd=1.45e-05 
+ nrs=0.19 nrd=0.1 
m64 43 9 1 1 penh l=1.1e-06 w=1.12e-05 
+ as=2.744e-11 ad=2.494e-11 ps=2.85e-05 pd=2.114e-05 
+ nrs=0.22 nrd=0.2 
m65 46 42 47 1 penh l=1.1e-06 w=1.12e-05 
+ as=9.52e-12 ad=2.52e-11 ps=1.29e-05 pd=2.85e-05 
+ nrs=0.08 nrd=0.2 
m66 1 48 46 1 penh l=1.1e-06 w=1.12e-05 
+ as=2.494e-11 ad=9.52e-12 ps=2.114e-05 pd=1.29e-05 
+ nrs=0.2 nrd=0.08 
m67 49 50 1 1 penh l=1.1e-06 w=1.2e-05 
+ as=1.42e-11 ad=2.672e-11 ps=1.45e-05 pd=2.265e-05 
+ nrs=0.1 nrd=0.19 
m68 1 50 49 1 penh l=1.1e-06 w=1.2e-05 
+ as=2.672e-11 ad=1.42e-11 ps=2.265e-05 pd=1.45e-05 
+ nrs=0.19 nrd=0.1 
m69 50 42 1 1 penh l=1.1e-06 w=1.2e-05 
+ as=1.42e-11 ad=2.672e-11 ps=1.45e-05 pd=2.265e-05 
+ nrs=0.1 nrd=0.19 
m70 1 15 50 1 penh l=1.1e-06 w=1.2e-05 
+ as=2.672e-11 ad=1.42e-11 ps=2.265e-05 pd=1.45e-05 
+ nrs=0.19 nrd=0.1 
m71 48 15 1 1 penh l=1.1e-06 w=1.12e-05 
+ as=2.744e-11 ad=2.494e-11 ps=2.85e-05 pd=2.114e-05 
+ nrs=0.22 nrd=0.2 
m72 41 42 0 0 nenh l=1.1e-06 w=8.4e-06 
+ as=1.386e-11 ad=1.665e-11 ps=1.17e-05 pd=1.575e-05 
+ nrs=0.2 nrd=0.24 
m73 0 43 41 0 nenh l=1.1e-06 w=8.4e-06 
+ as=1.665e-11 ad=1.386e-11 ps=1.575e-05 pd=1.17e-05 
+ nrs=0.24 nrd=0.2 
m74 44 41 0 0 nenh l=1.1e-06 w=1.2e-05 
+ as=1.452e-11 ad=2.378e-11 ps=1.45e-05 pd=2.249e-05 
+ nrs=0.1 nrd=0.17 
m75 0 41 44 0 nenh l=1.1e-06 w=1.2e-05 
+ as=2.378e-11 ad=1.452e-11 ps=2.249e-05 pd=1.45e-05 
+ nrs=0.17 nrd=0.1 
m76 51 42 45 0 nenh l=1.1e-06 w=9.6e-06 
+ as=8.16e-12 ad=2.928e-11 ps=1.13e-05 pd=2.53e-05 
+ nrs=0.09 nrd=0.32 
m77 0 9 51 0 nenh l=1.1e-06 w=9.6e-06 
+ as=1.903e-11 ad=8.16e-12 ps=1.799e-05 pd=1.13e-05 
+ nrs=0.21 nrd=0.09 
m78 43 9 0 0 nenh l=1.1e-06 w=5.6e-06 
+ as=1.708e-11 ad=1.11e-11 ps=1.73e-05 pd=1.05e-05 
+ nrs=0.54 nrd=0.35 
m79 1 52 42 1 penh l=1.1e-06 w=1.2e-05 
+ as=2.672e-11 ad=2.572e-11 ps=2.265e-05 pd=2.69e-05 
+ nrs=0.19 nrd=0.18 
m80 53 42 1 1 penh l=1.1e-06 w=1.48e-05 
+ as=2.587e-11 ad=3.295e-11 ps=2.908e-05 pd=2.794e-05 
+ nrs=0.12 nrd=0.15 
m81 52 19 53 1 penh l=1.1e-06 w=2.4e-06 
+ as=9.4e-12 ad=4.19e-12 ps=1.25e-05 pd=4.72e-06 
+ nrs=1.63 nrd=0.73 
m82 47 42 0 0 nenh l=1.1e-06 w=8.4e-06 
+ as=1.386e-11 ad=1.665e-11 ps=1.17e-05 pd=1.575e-05 
+ nrs=0.2 nrd=0.24 
m83 0 48 47 0 nenh l=1.1e-06 w=8.4e-06 
+ as=1.665e-11 ad=1.386e-11 ps=1.575e-05 pd=1.17e-05 
+ nrs=0.24 nrd=0.2 
m84 49 47 0 0 nenh l=1.1e-06 w=1.2e-05 
+ as=1.452e-11 ad=2.378e-11 ps=1.45e-05 pd=2.249e-05 
+ nrs=0.1 nrd=0.17 
m85 0 47 49 0 nenh l=1.1e-06 w=1.2e-05 
+ as=2.378e-11 ad=1.452e-11 ps=2.249e-05 pd=1.45e-05 
+ nrs=0.17 nrd=0.1 
m86 54 42 50 0 nenh l=1.1e-06 w=9.6e-06 
+ as=8.16e-12 ad=2.928e-11 ps=1.13e-05 pd=2.53e-05 
+ nrs=0.09 nrd=0.32 
m87 0 15 54 0 nenh l=1.1e-06 w=9.6e-06 
+ as=1.903e-11 ad=8.16e-12 ps=1.799e-05 pd=1.13e-05 
+ nrs=0.21 nrd=0.09 
m88 48 15 0 0 nenh l=1.1e-06 w=5.6e-06 
+ as=1.708e-11 ad=1.11e-11 ps=1.73e-05 pd=1.05e-05 
+ nrs=0.54 nrd=0.35 
m89 1 56 55 1 penh l=1.1e-06 w=5.6e-06 
+ as=1.247e-11 ad=1.708e-11 ps=1.057e-05 pd=1.73e-05 
+ nrs=0.4 nrd=0.54 
m90 57 55 1 1 penh l=1.1e-06 w=5.6e-06 
+ as=4.76e-12 ad=1.247e-11 ps=7.3e-06 pd=1.057e-05 
+ nrs=0.15 nrd=0.4 
m91 58 25 57 1 penh l=1.1e-06 w=5.6e-06 
+ as=4.76e-12 ad=4.76e-12 ps=7.3e-06 pd=7.3e-06 
+ nrs=0.15 nrd=0.15 
m92 56 26 58 1 penh l=1.1e-06 w=5.6e-06 
+ as=1.708e-11 ad=4.76e-12 ps=1.73e-05 pd=7.3e-06 
+ nrs=0.54 nrd=0.15 
m93 59 60 1 1 penh l=1.1e-06 w=1.16e-05 
+ as=1.386e-11 ad=2.583e-11 ps=1.41e-05 pd=2.19e-05 
+ nrs=0.1 nrd=0.19 
m94 1 60 59 1 penh l=1.1e-06 w=1.16e-05 
+ as=2.583e-11 ad=1.386e-11 ps=2.19e-05 pd=1.41e-05 
+ nrs=0.19 nrd=0.1 
m95 61 30 1 1 penh l=1.1e-06 w=1.08e-05 
+ as=1.059e-11 ad=2.405e-11 ps=1.381e-05 pd=2.039e-05 
+ nrs=0.09 nrd=0.21 
m96 60 62 61 1 penh l=1.1e-06 w=1e-05 
+ as=1.25e-11 ad=9.81e-12 ps=1.25e-05 pd=1.279e-05 
+ nrs=0.13 nrd=0.1 
m97 63 64 60 1 penh l=1.1e-06 w=1e-05 
+ as=9.81e-12 ad=1.25e-11 ps=1.279e-05 pd=1.25e-05 
+ nrs=0.1 nrd=0.13 
m98 1 65 63 1 penh l=1.1e-06 w=1.08e-05 
+ as=2.405e-11 ad=1.059e-11 ps=2.039e-05 pd=1.381e-05 
+ nrs=0.21 nrd=0.09 
m99 65 30 1 1 penh l=1.1e-06 w=5.6e-06 
+ as=1.708e-11 ad=1.247e-11 ps=1.73e-05 pd=1.057e-05 
+ nrs=0.54 nrd=0.4 
m100 0 52 42 0 nenh l=1.1e-06 w=1.12e-05 
+ as=2.22e-11 ad=2.907e-11 ps=2.099e-05 pd=3.163e-05 
+ nrs=0.18 nrd=0.23 
m101 55 19 52 0 nenh l=1.1e-06 w=3.6e-06 
+ as=7.6e-12 ad=1.098e-11 ps=7.28e-06 pd=1.33e-05 
+ nrs=0.59 nrd=0.85 
m102 0 56 55 0 nenh l=1.1e-06 w=5.6e-06 
+ as=1.11e-11 ad=1.182e-11 ps=1.05e-05 pd=1.132e-05 
+ nrs=0.35 nrd=0.38 
m103 66 55 0 0 nenh l=1.1e-06 w=2.8e-06 
+ as=2.38e-12 ad=5.55e-12 ps=4.5e-06 pd=5.25e-06 
+ nrs=0.3 nrd=0.71 
m104 56 19 66 0 nenh l=1.1e-06 w=2.8e-06 
+ as=6.09e-12 ad=2.38e-12 ps=6.74e-06 pd=4.5e-06 
+ nrs=0.78 nrd=0.3 
m105 53 42 0 0 nenh l=1.1e-06 w=1.28e-05 
+ as=2.624e-11 ad=2.537e-11 ps=2.85e-05 pd=2.399e-05 
+ nrs=0.16 nrd=0.15 
m106 56 25 5 0 nenh l=1.1e-06 w=3.6e-06 
+ as=7.83e-12 ad=9.35e-12 ps=8.66e-06 pd=1.017e-05 
+ nrs=0.6 nrd=0.72 
m107 59 26 56 0 nenh l=1.1e-06 w=3.6e-06 
+ as=7.52e-12 ad=7.83e-12 ps=7.76e-06 pd=8.66e-06 
+ nrs=0.58 nrd=0.6 
m108 0 37 56 0 nenh l=1.1e-06 w=2.8e-06 
+ as=5.55e-12 ad=6.09e-12 ps=5.25e-06 pd=6.74e-06 
+ nrs=0.71 nrd=0.78 
m109 59 60 0 0 nenh l=1.1e-06 w=5.6e-06 
+ as=1.169e-11 ad=1.11e-11 ps=1.207e-05 pd=1.05e-05 
+ nrs=0.37 nrd=0.35 
m110 0 60 59 0 nenh l=1.1e-06 w=5.6e-06 
+ as=1.11e-11 ad=1.169e-11 ps=1.05e-05 pd=1.207e-05 
+ nrs=0.35 nrd=0.37 
m111 67 65 0 0 nenh l=1.1e-06 w=1.12e-05 
+ as=1.007e-11 ad=2.22e-11 ps=1.605e-05 pd=2.099e-05 
+ nrs=0.08 nrd=0.18 
m112 60 62 67 0 nenh l=1.1e-06 w=6.8e-06 
+ as=1.122e-11 ad=6.11e-12 ps=1.01e-05 pd=9.75e-06 
+ nrs=0.24 nrd=0.13 
m113 68 64 60 0 nenh l=1.1e-06 w=6.8e-06 
+ as=6.11e-12 ad=1.122e-11 ps=9.75e-06 pd=1.01e-05 
+ nrs=0.13 nrd=0.24 
m114 0 30 68 0 nenh l=1.1e-06 w=1.12e-05 
+ as=2.22e-11 ad=1.007e-11 ps=2.099e-05 pd=1.605e-05 
+ nrs=0.18 nrd=0.08 
m115 65 30 0 0 nenh l=1.1e-06 w=2.8e-06 
+ as=8.54e-12 ad=5.55e-12 ps=1.17e-05 pd=5.25e-06 
+ nrs=1.09 nrd=0.71 
m116 69 71 70 1 penh l=1.1e-06 w=1.12e-05 
+ as=9.52e-12 ad=2.744e-11 ps=1.29e-05 pd=2.85e-05 
+ nrs=0.08 nrd=0.22 
m117 1 72 69 1 penh l=1.1e-06 w=1.12e-05 
+ as=2.494e-11 ad=9.52e-12 ps=2.114e-05 pd=1.29e-05 
+ nrs=0.2 nrd=0.08 
m118 73 74 1 1 penh l=1.1e-06 w=1.2e-05 
+ as=1.42e-11 ad=2.672e-11 ps=1.45e-05 pd=2.265e-05 
+ nrs=0.1 nrd=0.19 
m119 1 74 73 1 penh l=1.1e-06 w=1.2e-05 
+ as=2.672e-11 ad=1.42e-11 ps=2.265e-05 pd=1.45e-05 
+ nrs=0.19 nrd=0.1 
m120 74 71 1 1 penh l=1.1e-06 w=1.2e-05 
+ as=1.42e-11 ad=2.672e-11 ps=1.45e-05 pd=2.265e-05 
+ nrs=0.1 nrd=0.19 
m121 1 9 74 1 penh l=1.1e-06 w=1.2e-05 
+ as=2.672e-11 ad=1.42e-11 ps=2.265e-05 pd=1.45e-05 
+ nrs=0.19 nrd=0.1 
m122 72 9 1 1 penh l=1.1e-06 w=1.12e-05 
+ as=2.744e-11 ad=2.494e-11 ps=2.85e-05 pd=2.114e-05 
+ nrs=0.22 nrd=0.2 
m123 75 71 76 1 penh l=1.1e-06 w=1.12e-05 
+ as=9.52e-12 ad=2.52e-11 ps=1.29e-05 pd=2.85e-05 
+ nrs=0.08 nrd=0.2 
m124 1 77 75 1 penh l=1.1e-06 w=1.12e-05 
+ as=2.494e-11 ad=9.52e-12 ps=2.114e-05 pd=1.29e-05 
+ nrs=0.2 nrd=0.08 
m125 78 79 1 1 penh l=1.1e-06 w=1.2e-05 
+ as=1.42e-11 ad=2.672e-11 ps=1.45e-05 pd=2.265e-05 
+ nrs=0.1 nrd=0.19 
m126 1 79 78 1 penh l=1.1e-06 w=1.2e-05 
+ as=2.672e-11 ad=1.42e-11 ps=2.265e-05 pd=1.45e-05 
+ nrs=0.19 nrd=0.1 
m127 79 71 1 1 penh l=1.1e-06 w=1.2e-05 
+ as=1.42e-11 ad=2.672e-11 ps=1.45e-05 pd=2.265e-05 
+ nrs=0.1 nrd=0.19 
m128 1 15 79 1 penh l=1.1e-06 w=1.2e-05 
+ as=2.672e-11 ad=1.42e-11 ps=2.265e-05 pd=1.45e-05 
+ nrs=0.19 nrd=0.1 
m129 77 15 1 1 penh l=1.1e-06 w=1.12e-05 
+ as=2.744e-11 ad=2.494e-11 ps=2.85e-05 pd=2.114e-05 
+ nrs=0.22 nrd=0.2 
m130 70 71 0 0 nenh l=1.1e-06 w=8.4e-06 
+ as=1.386e-11 ad=1.665e-11 ps=1.17e-05 pd=1.575e-05 
+ nrs=0.2 nrd=0.24 
m131 0 72 70 0 nenh l=1.1e-06 w=8.4e-06 
+ as=1.665e-11 ad=1.386e-11 ps=1.575e-05 pd=1.17e-05 
+ nrs=0.24 nrd=0.2 
m132 73 70 0 0 nenh l=1.1e-06 w=1.2e-05 
+ as=1.452e-11 ad=2.378e-11 ps=1.45e-05 pd=2.249e-05 
+ nrs=0.1 nrd=0.17 
m133 0 70 73 0 nenh l=1.1e-06 w=1.2e-05 
+ as=2.378e-11 ad=1.452e-11 ps=2.249e-05 pd=1.45e-05 
+ nrs=0.17 nrd=0.1 
m134 80 71 74 0 nenh l=1.1e-06 w=9.6e-06 
+ as=8.16e-12 ad=2.928e-11 ps=1.13e-05 pd=2.53e-05 
+ nrs=0.09 nrd=0.32 
m135 0 9 80 0 nenh l=1.1e-06 w=9.6e-06 
+ as=1.903e-11 ad=8.16e-12 ps=1.799e-05 pd=1.13e-05 
+ nrs=0.21 nrd=0.09 
m136 72 9 0 0 nenh l=1.1e-06 w=5.6e-06 
+ as=1.708e-11 ad=1.11e-11 ps=1.73e-05 pd=1.05e-05 
+ nrs=0.54 nrd=0.35 
m137 1 81 71 1 penh l=1.1e-06 w=1.2e-05 
+ as=2.672e-11 ad=2.572e-11 ps=2.265e-05 pd=2.69e-05 
+ nrs=0.19 nrd=0.18 
m138 82 71 1 1 penh l=1.1e-06 w=1.48e-05 
+ as=2.587e-11 ad=3.295e-11 ps=2.908e-05 pd=2.794e-05 
+ nrs=0.12 nrd=0.15 
m139 81 19 82 1 penh l=1.1e-06 w=2.4e-06 
+ as=9.4e-12 ad=4.19e-12 ps=1.25e-05 pd=4.72e-06 
+ nrs=1.63 nrd=0.73 
m140 76 71 0 0 nenh l=1.1e-06 w=8.4e-06 
+ as=1.386e-11 ad=1.665e-11 ps=1.17e-05 pd=1.575e-05 
+ nrs=0.2 nrd=0.24 
m141 0 77 76 0 nenh l=1.1e-06 w=8.4e-06 
+ as=1.665e-11 ad=1.386e-11 ps=1.575e-05 pd=1.17e-05 
+ nrs=0.24 nrd=0.2 
m142 78 76 0 0 nenh l=1.1e-06 w=1.2e-05 
+ as=1.452e-11 ad=2.378e-11 ps=1.45e-05 pd=2.249e-05 
+ nrs=0.1 nrd=0.17 
m143 0 76 78 0 nenh l=1.1e-06 w=1.2e-05 
+ as=2.378e-11 ad=1.452e-11 ps=2.249e-05 pd=1.45e-05 
+ nrs=0.17 nrd=0.1 
m144 83 71 79 0 nenh l=1.1e-06 w=9.6e-06 
+ as=8.16e-12 ad=2.928e-11 ps=1.13e-05 pd=2.53e-05 
+ nrs=0.09 nrd=0.32 
m145 0 15 83 0 nenh l=1.1e-06 w=9.6e-06 
+ as=1.903e-11 ad=8.16e-12 ps=1.799e-05 pd=1.13e-05 
+ nrs=0.21 nrd=0.09 
m146 77 15 0 0 nenh l=1.1e-06 w=5.6e-06 
+ as=1.708e-11 ad=1.11e-11 ps=1.73e-05 pd=1.05e-05 
+ nrs=0.54 nrd=0.35 
m147 1 85 84 1 penh l=1.1e-06 w=5.6e-06 
+ as=1.247e-11 ad=1.708e-11 ps=1.057e-05 pd=1.73e-05 
+ nrs=0.4 nrd=0.54 
m148 86 84 1 1 penh l=1.1e-06 w=5.6e-06 
+ as=4.76e-12 ad=1.247e-11 ps=7.3e-06 pd=1.057e-05 
+ nrs=0.15 nrd=0.4 
m149 87 25 86 1 penh l=1.1e-06 w=5.6e-06 
+ as=4.76e-12 ad=4.76e-12 ps=7.3e-06 pd=7.3e-06 
+ nrs=0.15 nrd=0.15 
m150 85 26 87 1 penh l=1.1e-06 w=5.6e-06 
+ as=1.708e-11 ad=4.76e-12 ps=1.73e-05 pd=7.3e-06 
+ nrs=0.54 nrd=0.15 
m151 88 89 1 1 penh l=1.1e-06 w=1.16e-05 
+ as=1.386e-11 ad=2.583e-11 ps=1.41e-05 pd=2.19e-05 
+ nrs=0.1 nrd=0.19 
m152 1 89 88 1 penh l=1.1e-06 w=1.16e-05 
+ as=2.583e-11 ad=1.386e-11 ps=2.19e-05 pd=1.41e-05 
+ nrs=0.19 nrd=0.1 
m153 90 30 1 1 penh l=1.1e-06 w=1.08e-05 
+ as=1.059e-11 ad=2.405e-11 ps=1.381e-05 pd=2.039e-05 
+ nrs=0.09 nrd=0.21 
m154 89 91 90 1 penh l=1.1e-06 w=1e-05 
+ as=1.25e-11 ad=9.81e-12 ps=1.25e-05 pd=1.279e-05 
+ nrs=0.13 nrd=0.1 
m155 92 93 89 1 penh l=1.1e-06 w=1e-05 
+ as=9.81e-12 ad=1.25e-11 ps=1.279e-05 pd=1.25e-05 
+ nrs=0.1 nrd=0.13 
m156 1 94 92 1 penh l=1.1e-06 w=1.08e-05 
+ as=2.405e-11 ad=1.059e-11 ps=2.039e-05 pd=1.381e-05 
+ nrs=0.21 nrd=0.09 
m157 94 30 1 1 penh l=1.1e-06 w=5.6e-06 
+ as=1.708e-11 ad=1.247e-11 ps=1.73e-05 pd=1.057e-05 
+ nrs=0.54 nrd=0.4 
m158 0 81 71 0 nenh l=1.1e-06 w=1.12e-05 
+ as=2.22e-11 ad=2.907e-11 ps=2.099e-05 pd=3.163e-05 
+ nrs=0.18 nrd=0.23 
m159 84 19 81 0 nenh l=1.1e-06 w=3.6e-06 
+ as=7.6e-12 ad=1.098e-11 ps=7.28e-06 pd=1.33e-05 
+ nrs=0.59 nrd=0.85 
m160 0 85 84 0 nenh l=1.1e-06 w=5.6e-06 
+ as=1.11e-11 ad=1.182e-11 ps=1.05e-05 pd=1.132e-05 
+ nrs=0.35 nrd=0.38 
m161 95 84 0 0 nenh l=1.1e-06 w=2.8e-06 
+ as=2.38e-12 ad=5.55e-12 ps=4.5e-06 pd=5.25e-06 
+ nrs=0.3 nrd=0.71 
m162 85 19 95 0 nenh l=1.1e-06 w=2.8e-06 
+ as=6.09e-12 ad=2.38e-12 ps=6.74e-06 pd=4.5e-06 
+ nrs=0.78 nrd=0.3 
m163 82 71 0 0 nenh l=1.1e-06 w=1.28e-05 
+ as=2.624e-11 ad=2.537e-11 ps=2.85e-05 pd=2.399e-05 
+ nrs=0.16 nrd=0.15 
m164 85 25 42 0 nenh l=1.1e-06 w=3.6e-06 
+ as=7.83e-12 ad=9.35e-12 ps=8.66e-06 pd=1.017e-05 
+ nrs=0.6 nrd=0.72 
m165 88 26 85 0 nenh l=1.1e-06 w=3.6e-06 
+ as=7.52e-12 ad=7.83e-12 ps=7.76e-06 pd=8.66e-06 
+ nrs=0.58 nrd=0.6 
m166 0 37 85 0 nenh l=1.1e-06 w=2.8e-06 
+ as=5.55e-12 ad=6.09e-12 ps=5.25e-06 pd=6.74e-06 
+ nrs=0.71 nrd=0.78 
m167 88 89 0 0 nenh l=1.1e-06 w=5.6e-06 
+ as=1.169e-11 ad=1.11e-11 ps=1.207e-05 pd=1.05e-05 
+ nrs=0.37 nrd=0.35 
m168 0 89 88 0 nenh l=1.1e-06 w=5.6e-06 
+ as=1.11e-11 ad=1.169e-11 ps=1.05e-05 pd=1.207e-05 
+ nrs=0.35 nrd=0.37 
m169 96 94 0 0 nenh l=1.1e-06 w=1.12e-05 
+ as=1.007e-11 ad=2.22e-11 ps=1.605e-05 pd=2.099e-05 
+ nrs=0.08 nrd=0.18 
m170 89 91 96 0 nenh l=1.1e-06 w=6.8e-06 
+ as=1.122e-11 ad=6.11e-12 ps=1.01e-05 pd=9.75e-06 
+ nrs=0.24 nrd=0.13 
m171 97 93 89 0 nenh l=1.1e-06 w=6.8e-06 
+ as=6.11e-12 ad=1.122e-11 ps=9.75e-06 pd=1.01e-05 
+ nrs=0.13 nrd=0.24 
m172 0 30 97 0 nenh l=1.1e-06 w=1.12e-05 
+ as=2.22e-11 ad=1.007e-11 ps=2.099e-05 pd=1.605e-05 
+ nrs=0.18 nrd=0.08 
m173 94 30 0 0 nenh l=1.1e-06 w=2.8e-06 
+ as=8.54e-12 ad=5.55e-12 ps=1.17e-05 pd=5.25e-06 
+ nrs=1.09 nrd=0.71 
m174 98 100 99 1 penh l=1.1e-06 w=1.12e-05 
+ as=9.52e-12 ad=2.744e-11 ps=1.29e-05 pd=2.85e-05 
+ nrs=0.08 nrd=0.22 
m175 1 101 98 1 penh l=1.1e-06 w=1.12e-05 
+ as=2.494e-11 ad=9.52e-12 ps=2.114e-05 pd=1.29e-05 
+ nrs=0.2 nrd=0.08 
m176 102 103 1 1 penh l=1.1e-06 w=1.2e-05 
+ as=1.42e-11 ad=2.672e-11 ps=1.45e-05 pd=2.265e-05 
+ nrs=0.1 nrd=0.19 
m177 1 103 102 1 penh l=1.1e-06 w=1.2e-05 
+ as=2.672e-11 ad=1.42e-11 ps=2.265e-05 pd=1.45e-05 
+ nrs=0.19 nrd=0.1 
m178 103 100 1 1 penh l=1.1e-06 w=1.2e-05 
+ as=1.42e-11 ad=2.672e-11 ps=1.45e-05 pd=2.265e-05 
+ nrs=0.1 nrd=0.19 
m179 1 9 103 1 penh l=1.1e-06 w=1.2e-05 
+ as=2.672e-11 ad=1.42e-11 ps=2.265e-05 pd=1.45e-05 
+ nrs=0.19 nrd=0.1 
m180 101 9 1 1 penh l=1.1e-06 w=1.12e-05 
+ as=2.744e-11 ad=2.494e-11 ps=2.85e-05 pd=2.114e-05 
+ nrs=0.22 nrd=0.2 
m181 104 100 105 1 penh l=1.1e-06 w=1.12e-05 
+ as=9.52e-12 ad=2.52e-11 ps=1.29e-05 pd=2.85e-05 
+ nrs=0.08 nrd=0.2 
m182 1 106 104 1 penh l=1.1e-06 w=1.12e-05 
+ as=2.494e-11 ad=9.52e-12 ps=2.114e-05 pd=1.29e-05 
+ nrs=0.2 nrd=0.08 
m183 107 108 1 1 penh l=1.1e-06 w=1.2e-05 
+ as=1.42e-11 ad=2.672e-11 ps=1.45e-05 pd=2.265e-05 
+ nrs=0.1 nrd=0.19 
m184 1 108 107 1 penh l=1.1e-06 w=1.2e-05 
+ as=2.672e-11 ad=1.42e-11 ps=2.265e-05 pd=1.45e-05 
+ nrs=0.19 nrd=0.1 
m185 108 100 1 1 penh l=1.1e-06 w=1.2e-05 
+ as=1.42e-11 ad=2.672e-11 ps=1.45e-05 pd=2.265e-05 
+ nrs=0.1 nrd=0.19 
m186 1 15 108 1 penh l=1.1e-06 w=1.2e-05 
+ as=2.672e-11 ad=1.42e-11 ps=2.265e-05 pd=1.45e-05 
+ nrs=0.19 nrd=0.1 
m187 106 15 1 1 penh l=1.1e-06 w=1.12e-05 
+ as=2.744e-11 ad=2.494e-11 ps=2.85e-05 pd=2.114e-05 
+ nrs=0.22 nrd=0.2 
m188 99 100 0 0 nenh l=1.1e-06 w=8.4e-06 
+ as=1.386e-11 ad=1.665e-11 ps=1.17e-05 pd=1.575e-05 
+ nrs=0.2 nrd=0.24 
m189 0 101 99 0 nenh l=1.1e-06 w=8.4e-06 
+ as=1.665e-11 ad=1.386e-11 ps=1.575e-05 pd=1.17e-05 
+ nrs=0.24 nrd=0.2 
m190 102 99 0 0 nenh l=1.1e-06 w=1.2e-05 
+ as=1.452e-11 ad=2.378e-11 ps=1.45e-05 pd=2.249e-05 
+ nrs=0.1 nrd=0.17 
m191 0 99 102 0 nenh l=1.1e-06 w=1.2e-05 
+ as=2.378e-11 ad=1.452e-11 ps=2.249e-05 pd=1.45e-05 
+ nrs=0.17 nrd=0.1 
m192 109 100 103 0 nenh l=1.1e-06 w=9.6e-06 
+ as=8.16e-12 ad=2.928e-11 ps=1.13e-05 pd=2.53e-05 
+ nrs=0.09 nrd=0.32 
m193 0 9 109 0 nenh l=1.1e-06 w=9.6e-06 
+ as=1.903e-11 ad=8.16e-12 ps=1.799e-05 pd=1.13e-05 
+ nrs=0.21 nrd=0.09 
m194 101 9 0 0 nenh l=1.1e-06 w=5.6e-06 
+ as=1.708e-11 ad=1.11e-11 ps=1.73e-05 pd=1.05e-05 
+ nrs=0.54 nrd=0.35 
m195 1 110 100 1 penh l=1.1e-06 w=1.2e-05 
+ as=2.672e-11 ad=2.572e-11 ps=2.265e-05 pd=2.69e-05 
+ nrs=0.19 nrd=0.18 
m196 111 100 1 1 penh l=1.1e-06 w=1.48e-05 
+ as=2.587e-11 ad=3.295e-11 ps=2.908e-05 pd=2.794e-05 
+ nrs=0.12 nrd=0.15 
m197 110 19 111 1 penh l=1.1e-06 w=2.4e-06 
+ as=9.4e-12 ad=4.19e-12 ps=1.25e-05 pd=4.72e-06 
+ nrs=1.63 nrd=0.73 
m198 105 100 0 0 nenh l=1.1e-06 w=8.4e-06 
+ as=1.386e-11 ad=1.665e-11 ps=1.17e-05 pd=1.575e-05 
+ nrs=0.2 nrd=0.24 
m199 0 106 105 0 nenh l=1.1e-06 w=8.4e-06 
+ as=1.665e-11 ad=1.386e-11 ps=1.575e-05 pd=1.17e-05 
+ nrs=0.24 nrd=0.2 
m200 107 105 0 0 nenh l=1.1e-06 w=1.2e-05 
+ as=1.452e-11 ad=2.378e-11 ps=1.45e-05 pd=2.249e-05 
+ nrs=0.1 nrd=0.17 
m201 0 105 107 0 nenh l=1.1e-06 w=1.2e-05 
+ as=2.378e-11 ad=1.452e-11 ps=2.249e-05 pd=1.45e-05 
+ nrs=0.17 nrd=0.1 
m202 112 100 108 0 nenh l=1.1e-06 w=9.6e-06 
+ as=8.16e-12 ad=2.928e-11 ps=1.13e-05 pd=2.53e-05 
+ nrs=0.09 nrd=0.32 
m203 0 15 112 0 nenh l=1.1e-06 w=9.6e-06 
+ as=1.903e-11 ad=8.16e-12 ps=1.799e-05 pd=1.13e-05 
+ nrs=0.21 nrd=0.09 
m204 106 15 0 0 nenh l=1.1e-06 w=5.6e-06 
+ as=1.708e-11 ad=1.11e-11 ps=1.73e-05 pd=1.05e-05 
+ nrs=0.54 nrd=0.35 
m205 1 114 113 1 penh l=1.1e-06 w=5.6e-06 
+ as=1.247e-11 ad=1.708e-11 ps=1.057e-05 pd=1.73e-05 
+ nrs=0.4 nrd=0.54 
m206 115 113 1 1 penh l=1.1e-06 w=5.6e-06 
+ as=4.76e-12 ad=1.247e-11 ps=7.3e-06 pd=1.057e-05 
+ nrs=0.15 nrd=0.4 
m207 116 25 115 1 penh l=1.1e-06 w=5.6e-06 
+ as=4.76e-12 ad=4.76e-12 ps=7.3e-06 pd=7.3e-06 
+ nrs=0.15 nrd=0.15 
m208 114 26 116 1 penh l=1.1e-06 w=5.6e-06 
+ as=1.708e-11 ad=4.76e-12 ps=1.73e-05 pd=7.3e-06 
+ nrs=0.54 nrd=0.15 
m209 117 118 1 1 penh l=1.1e-06 w=1.16e-05 
+ as=1.386e-11 ad=2.583e-11 ps=1.41e-05 pd=2.19e-05 
+ nrs=0.1 nrd=0.19 
m210 1 118 117 1 penh l=1.1e-06 w=1.16e-05 
+ as=2.583e-11 ad=1.386e-11 ps=2.19e-05 pd=1.41e-05 
+ nrs=0.19 nrd=0.1 
m211 119 30 1 1 penh l=1.1e-06 w=1.08e-05 
+ as=1.059e-11 ad=2.405e-11 ps=1.381e-05 pd=2.039e-05 
+ nrs=0.09 nrd=0.21 
m212 118 120 119 1 penh l=1.1e-06 w=1e-05 
+ as=1.25e-11 ad=9.81e-12 ps=1.25e-05 pd=1.279e-05 
+ nrs=0.13 nrd=0.1 
m213 121 122 118 1 penh l=1.1e-06 w=1e-05 
+ as=9.81e-12 ad=1.25e-11 ps=1.279e-05 pd=1.25e-05 
+ nrs=0.1 nrd=0.13 
m214 1 123 121 1 penh l=1.1e-06 w=1.08e-05 
+ as=2.405e-11 ad=1.059e-11 ps=2.039e-05 pd=1.381e-05 
+ nrs=0.21 nrd=0.09 
m215 123 30 1 1 penh l=1.1e-06 w=5.6e-06 
+ as=1.708e-11 ad=1.247e-11 ps=1.73e-05 pd=1.057e-05 
+ nrs=0.54 nrd=0.4 
m216 0 110 100 0 nenh l=1.1e-06 w=1.12e-05 
+ as=2.22e-11 ad=2.907e-11 ps=2.099e-05 pd=3.163e-05 
+ nrs=0.18 nrd=0.23 
m217 113 19 110 0 nenh l=1.1e-06 w=3.6e-06 
+ as=7.6e-12 ad=1.098e-11 ps=7.28e-06 pd=1.33e-05 
+ nrs=0.59 nrd=0.85 
m218 0 114 113 0 nenh l=1.1e-06 w=5.6e-06 
+ as=1.11e-11 ad=1.182e-11 ps=1.05e-05 pd=1.132e-05 
+ nrs=0.35 nrd=0.38 
m219 124 113 0 0 nenh l=1.1e-06 w=2.8e-06 
+ as=2.38e-12 ad=5.55e-12 ps=4.5e-06 pd=5.25e-06 
+ nrs=0.3 nrd=0.71 
m220 114 19 124 0 nenh l=1.1e-06 w=2.8e-06 
+ as=6.09e-12 ad=2.38e-12 ps=6.74e-06 pd=4.5e-06 
+ nrs=0.78 nrd=0.3 
m221 111 100 0 0 nenh l=1.1e-06 w=1.28e-05 
+ as=2.624e-11 ad=2.537e-11 ps=2.85e-05 pd=2.399e-05 
+ nrs=0.16 nrd=0.15 
m222 114 25 71 0 nenh l=1.1e-06 w=3.6e-06 
+ as=7.83e-12 ad=9.35e-12 ps=8.66e-06 pd=1.017e-05 
+ nrs=0.6 nrd=0.72 
m223 117 26 114 0 nenh l=1.1e-06 w=3.6e-06 
+ as=7.52e-12 ad=7.83e-12 ps=7.76e-06 pd=8.66e-06 
+ nrs=0.58 nrd=0.6 
m224 0 37 114 0 nenh l=1.1e-06 w=2.8e-06 
+ as=5.55e-12 ad=6.09e-12 ps=5.25e-06 pd=6.74e-06 
+ nrs=0.71 nrd=0.78 
m225 117 118 0 0 nenh l=1.1e-06 w=5.6e-06 
+ as=1.169e-11 ad=1.11e-11 ps=1.207e-05 pd=1.05e-05 
+ nrs=0.37 nrd=0.35 
m226 0 118 117 0 nenh l=1.1e-06 w=5.6e-06 
+ as=1.11e-11 ad=1.169e-11 ps=1.05e-05 pd=1.207e-05 
+ nrs=0.35 nrd=0.37 
m227 125 123 0 0 nenh l=1.1e-06 w=1.12e-05 
+ as=1.007e-11 ad=2.22e-11 ps=1.605e-05 pd=2.099e-05 
+ nrs=0.08 nrd=0.18 
m228 118 120 125 0 nenh l=1.1e-06 w=6.8e-06 
+ as=1.122e-11 ad=6.11e-12 ps=1.01e-05 pd=9.75e-06 
+ nrs=0.24 nrd=0.13 
m229 126 122 118 0 nenh l=1.1e-06 w=6.8e-06 
+ as=6.11e-12 ad=1.122e-11 ps=9.75e-06 pd=1.01e-05 
+ nrs=0.13 nrd=0.24 
m230 0 30 126 0 nenh l=1.1e-06 w=1.12e-05 
+ as=2.22e-11 ad=1.007e-11 ps=2.099e-05 pd=1.605e-05 
+ nrs=0.18 nrd=0.08 
m231 123 30 0 0 nenh l=1.1e-06 w=2.8e-06 
+ as=8.54e-12 ad=5.55e-12 ps=1.17e-05 pd=5.25e-06 
+ nrs=1.09 nrd=0.71 
m232 127 129 128 1 penh l=1.1e-06 w=1.12e-05 
+ as=9.52e-12 ad=2.744e-11 ps=1.29e-05 pd=2.85e-05 
+ nrs=0.08 nrd=0.22 
m233 1 130 127 1 penh l=1.1e-06 w=1.12e-05 
+ as=2.494e-11 ad=9.52e-12 ps=2.114e-05 pd=1.29e-05 
+ nrs=0.2 nrd=0.08 
m234 131 132 1 1 penh l=1.1e-06 w=1.2e-05 
+ as=1.42e-11 ad=2.672e-11 ps=1.45e-05 pd=2.265e-05 
+ nrs=0.1 nrd=0.19 
m235 1 132 131 1 penh l=1.1e-06 w=1.2e-05 
+ as=2.672e-11 ad=1.42e-11 ps=2.265e-05 pd=1.45e-05 
+ nrs=0.19 nrd=0.1 
m236 132 129 1 1 penh l=1.1e-06 w=1.2e-05 
+ as=1.42e-11 ad=2.672e-11 ps=1.45e-05 pd=2.265e-05 
+ nrs=0.1 nrd=0.19 
m237 1 9 132 1 penh l=1.1e-06 w=1.2e-05 
+ as=2.672e-11 ad=1.42e-11 ps=2.265e-05 pd=1.45e-05 
+ nrs=0.19 nrd=0.1 
m238 130 9 1 1 penh l=1.1e-06 w=1.12e-05 
+ as=2.744e-11 ad=2.494e-11 ps=2.85e-05 pd=2.114e-05 
+ nrs=0.22 nrd=0.2 
m239 133 129 134 1 penh l=1.1e-06 w=1.12e-05 
+ as=9.52e-12 ad=2.52e-11 ps=1.29e-05 pd=2.85e-05 
+ nrs=0.08 nrd=0.2 
m240 1 135 133 1 penh l=1.1e-06 w=1.12e-05 
+ as=2.494e-11 ad=9.52e-12 ps=2.114e-05 pd=1.29e-05 
+ nrs=0.2 nrd=0.08 
m241 136 137 1 1 penh l=1.1e-06 w=1.2e-05 
+ as=1.42e-11 ad=2.672e-11 ps=1.45e-05 pd=2.265e-05 
+ nrs=0.1 nrd=0.19 
m242 1 137 136 1 penh l=1.1e-06 w=1.2e-05 
+ as=2.672e-11 ad=1.42e-11 ps=2.265e-05 pd=1.45e-05 
+ nrs=0.19 nrd=0.1 
m243 137 129 1 1 penh l=1.1e-06 w=1.2e-05 
+ as=1.42e-11 ad=2.672e-11 ps=1.45e-05 pd=2.265e-05 
+ nrs=0.1 nrd=0.19 
m244 1 15 137 1 penh l=1.1e-06 w=1.2e-05 
+ as=2.672e-11 ad=1.42e-11 ps=2.265e-05 pd=1.45e-05 
+ nrs=0.19 nrd=0.1 
m245 135 15 1 1 penh l=1.1e-06 w=1.12e-05 
+ as=2.744e-11 ad=2.494e-11 ps=2.85e-05 pd=2.114e-05 
+ nrs=0.22 nrd=0.2 
m246 128 129 0 0 nenh l=1.1e-06 w=8.4e-06 
+ as=1.386e-11 ad=1.665e-11 ps=1.17e-05 pd=1.575e-05 
+ nrs=0.2 nrd=0.24 
m247 0 130 128 0 nenh l=1.1e-06 w=8.4e-06 
+ as=1.665e-11 ad=1.386e-11 ps=1.575e-05 pd=1.17e-05 
+ nrs=0.24 nrd=0.2 
m248 131 128 0 0 nenh l=1.1e-06 w=1.2e-05 
+ as=1.452e-11 ad=2.378e-11 ps=1.45e-05 pd=2.249e-05 
+ nrs=0.1 nrd=0.17 
m249 0 128 131 0 nenh l=1.1e-06 w=1.2e-05 
+ as=2.378e-11 ad=1.452e-11 ps=2.249e-05 pd=1.45e-05 
+ nrs=0.17 nrd=0.1 
m250 138 129 132 0 nenh l=1.1e-06 w=9.6e-06 
+ as=8.16e-12 ad=2.928e-11 ps=1.13e-05 pd=2.53e-05 
+ nrs=0.09 nrd=0.32 
m251 0 9 138 0 nenh l=1.1e-06 w=9.6e-06 
+ as=1.903e-11 ad=8.16e-12 ps=1.799e-05 pd=1.13e-05 
+ nrs=0.21 nrd=0.09 
m252 130 9 0 0 nenh l=1.1e-06 w=5.6e-06 
+ as=1.708e-11 ad=1.11e-11 ps=1.73e-05 pd=1.05e-05 
+ nrs=0.54 nrd=0.35 
m253 1 139 129 1 penh l=1.1e-06 w=1.2e-05 
+ as=2.672e-11 ad=2.572e-11 ps=2.265e-05 pd=2.69e-05 