sram.sp SPICE FILE
.model nenh nmos
+ level = 2
+   vto = 0.59073   kp = 6.12449e-05   gamma = 0.420929
+   phi = 0.7
+
+   cgso = 2.42e-10   cgdo = 2.42e-10
+   rsh = 85   cj = 0.000839
+   mj = 0.796   cjsw = 2.07e-10   mjsw = 0.284
+   tox = 1.75e-08   nsub = 1.50672e+17
+   nss = 3e+10   nfs = 2556.07   tpg = 1
+   xj = 1.73914e-09   ld = 4e-08   uo = 578.411
+   ucrit = 324603   uexp = 0.242015
+   vmax = 128159   neff = 1.22049
+
+   delta = 3.02002
.model penh pmos
+ level = 2
+   vto = -0.59379   kp = 2.35643e-05   gamma = 0.81466
+   phi = 1
+
+   cgso = 2.42e-10   cgdo = 2.42e-10
+   rsh = 154   cj = 0.00054
+   mj = 0.3426   cjsw = 2.15e-10   mjsw = 0.2315
+   tox = 1.75e-08   nsub = 3.36196e+15
+   nss = 3e+10   nfs = 1e+11   tpg = -1
+   xj = 7.41512e-09   ld = 4e-08   uo = 641.842
+   ucrit = 6408.27   uexp = 0.0998923
+   vmax = 132350   neff = 21.4017
+
+   delta = 6.35195
m0 3 5 4 1 penh l=8e-07 w=1e-05 
+ as=1.086e-11 ad=9.39e-12 ps=1.413e-05 pd=1.239e-05 
+ nrs=0.11 nrd=0.09 
m1 4 5 3 1 penh l=8e-07 w=1.08e-05 
+ as=1.015e-11 ad=1.173e-11 ps=1.338e-05 pd=1.526e-05 
+ nrs=0.09 nrd=0.1 
m2 3 5 4 1 penh l=8e-07 w=1e-05 
+ as=1.086e-11 ad=9.39e-12 ps=1.413e-05 pd=1.239e-05 
+ nrs=0.11 nrd=0.09 
m3 4 5 3 1 penh l=8e-07 w=1.1e-05 
+ as=1.033e-11 ad=1.195e-11 ps=1.363e-05 pd=1.554e-05 
+ nrs=0.09 nrd=0.1 
m4 3 5 4 1 penh l=8e-07 w=1e-05 
+ as=1.086e-11 ad=9.39e-12 ps=1.413e-05 pd=1.239e-05 
+ nrs=0.11 nrd=0.09 
m5 3 6 4 0 nenh l=8e-07 w=1e-05 
+ as=7.44e-12 ad=2.334e-11 ps=1.147e-05 pd=1.729e-05 
+ nrs=0.07 nrd=0.23 
m6 4 6 3 0 nenh l=8e-07 w=1.12e-05 
+ as=2.614e-11 ad=8.33e-12 ps=1.936e-05 pd=1.285e-05 
+ nrs=0.21 nrd=0.07 
m7 6 5 0 0 nenh l=8e-07 w=2.2e-06 
+ as=4.04e-12 ad=2.059e-11 ps=5.33e-06 pd=9.94e-06 
+ nrs=0.83 nrd=4.25 
m8 3 6 4 0 nenh l=8e-07 w=1e-05 
+ as=7.44e-12 ad=2.334e-11 ps=1.147e-05 pd=1.729e-05 
+ nrs=0.07 nrd=0.23 
m9 1 5 6 1 penh l=8e-07 w=8e-06 
+ as=1.465e-11 ad=1.889e-11 ps=1.845e-05 pd=2.323e-05 
+ nrs=0.23 nrd=0.3 
m10 4 6 3 0 nenh l=8e-07 w=1.12e-05 
+ as=2.614e-11 ad=8.33e-12 ps=1.936e-05 pd=1.285e-05 
+ nrs=0.21 nrd=0.07 
m11 7 8 6 1 penh l=8e-07 w=2.2e-06 
+ as=7.48e-12 ad=5.19e-12 ps=1.12e-05 pd=6.39e-06 
+ nrs=1.55 nrd=1.07 
m12 9 8 6 1 penh l=8e-07 w=2.2e-06 
+ as=2.42e-12 ad=5.19e-12 ps=4.4e-06 pd=6.39e-06 
+ nrs=0.5 nrd=1.07 
m13 9 4 6 0 nenh l=8e-07 w=2.2e-06 
+ as=2.42e-12 ad=4.04e-12 ps=4.4e-06 pd=5.33e-06 
+ nrs=0.5 nrd=0.83 
m14 7 4 6 0 nenh l=8e-07 w=2.2e-06 
+ as=7.48e-12 ad=4.04e-12 ps=1.12e-05 pd=5.33e-06 
+ nrs=1.55 nrd=0.83 
m15 5 9 1 1 penh l=8e-07 w=8e-06 
+ as=1.76e-11 ad=1.465e-11 ps=2.04e-05 pd=1.845e-05 
+ nrs=0.28 nrd=0.23 
m16 3 6 4 0 nenh l=8e-07 w=1e-05 
+ as=7.44e-12 ad=2.334e-11 ps=1.147e-05 pd=1.729e-05 
+ nrs=0.07 nrd=0.23 
m17 0 5 3 0 nenh l=8e-07 w=1.14e-05 
+ as=1.067e-10 ad=8.48e-12 ps=5.151e-05 pd=1.308e-05 
+ nrs=0.82 nrd=0.07 
m18 10 11 9 1 penh l=8e-07 w=2.2e-06 
+ as=4.84e-12 ad=2.42e-12 ps=6.3e-06 pd=4.4e-06 
+ nrs=1 nrd=0.5 
m19 4 13 12 1 penh l=8e-07 w=1e-05 
+ as=9.39e-12 ad=1.112e-11 ps=1.239e-05 pd=1.419e-05 
+ nrs=0.09 nrd=0.11 
m20 12 13 0 0 nenh l=8e-07 w=1.14e-05 
+ as=8.48e-12 ad=1.067e-10 ps=1.308e-05 pd=5.151e-05 
+ nrs=0.07 nrd=0.82 
m21 12 13 4 1 penh l=8e-07 w=1.1e-05 
+ as=1.223e-11 ad=1.033e-11 ps=1.56e-05 pd=1.363e-05 
+ nrs=0.1 nrd=0.09 
m22 4 13 12 1 penh l=8e-07 w=1e-05 
+ as=9.39e-12 ad=1.112e-11 ps=1.239e-05 pd=1.419e-05 
+ nrs=0.09 nrd=0.11 
m23 12 13 4 1 penh l=8e-07 w=1.06e-05 
+ as=1.178e-11 ad=9.96e-12 ps=1.504e-05 pd=1.313e-05 
+ nrs=0.1 nrd=0.09 
m24 4 13 12 1 penh l=8e-07 w=1e-05 
+ as=9.39e-12 ad=1.112e-11 ps=1.239e-05 pd=1.419e-05 
+ nrs=0.09 nrd=0.11 
m25 4 14 12 0 nenh l=8e-07 w=1e-05 
+ as=2.334e-11 ad=7.44e-12 ps=1.729e-05 pd=1.147e-05 
+ nrs=0.23 nrd=0.07 
m26 1 15 13 1 penh l=8e-07 w=8e-06 
+ as=1.465e-11 ad=1.76e-11 ps=1.845e-05 pd=2.04e-05 
+ nrs=0.23 nrd=0.28 
m27 12 14 4 0 nenh l=8e-07 w=1.12e-05 
+ as=8.33e-12 ad=2.614e-11 ps=1.285e-05 pd=1.936e-05 
+ nrs=0.07 nrd=0.21 
m28 4 14 12 0 nenh l=8e-07 w=1e-05 
+ as=2.334e-11 ad=7.44e-12 ps=1.729e-05 pd=1.147e-05 
+ nrs=0.23 nrd=0.07 
m29 14 13 1 1 penh l=8e-07 w=8e-06 
+ as=1.848e-11 ad=1.465e-11 ps=2.323e-05 pd=1.845e-05 
+ nrs=0.29 nrd=0.23 
m30 15 11 16 1 penh l=8e-07 w=2.2e-06 
+ as=2.42e-12 ad=4.84e-12 ps=4.4e-06 pd=6.3e-06 
+ nrs=0.5 nrd=1 
m31 10 17 9 0 nenh l=8e-07 w=2.2e-06 
+ as=4.84e-12 ad=2.42e-12 ps=8.8e-06 pd=4.4e-06 
+ nrs=1 nrd=0.5 
m32 0 9 5 0 nenh l=8e-07 w=9e-06 
+ as=8.424e-11 ad=1.248e-11 ps=4.066e-05 pd=1.64e-05 
+ nrs=1.04 nrd=0.15 
m33 16 18 0 0 nenh l=8e-07 w=2.2e-06 
+ as=4.84e-12 ad=2.059e-11 ps=8.8e-06 pd=9.94e-06 
+ nrs=1 nrd=4.25 
m34 1 18 16 1 penh l=8e-07 w=8e-06 
+ as=1.465e-11 ad=1.76e-11 ps=1.845e-05 pd=2.29e-05 
+ nrs=0.23 nrd=0.28 
m35 18 7 0 0 nenh l=8e-07 w=8e-06 
+ as=1.508e-11 ad=7.488e-11 ps=2.4e-05 pd=3.615e-05 
+ nrs=0.24 nrd=1.17 
m36 18 7 1 1 penh l=8e-07 w=8e-06 
+ as=1.76e-11 ad=1.465e-11 ps=2.04e-05 pd=1.845e-05 
+ nrs=0.28 nrd=0.23 
m37 15 17 16 0 nenh l=8e-07 w=2.2e-06 
+ as=2.42e-12 ad=4.84e-12 ps=4.4e-06 pd=8.8e-06 
+ nrs=0.5 nrd=1 
m38 19 20 0 0 nenh l=8e-07 w=8e-06 
+ as=1.772e-11 ad=7.488e-11 ps=2.4e-05 pd=3.615e-05 
+ nrs=0.28 nrd=1.17 
m39 1 20 19 1 penh l=8e-07 w=8e-06 
+ as=1.465e-11 ad=1.76e-11 ps=1.845e-05 pd=2.04e-05 
+ nrs=0.23 nrd=0.28 
m40 14 8 20 1 penh l=8e-07 w=2.2e-06 
+ as=5.08e-12 ad=7.48e-12 ps=6.39e-06 pd=1.12e-05 
+ nrs=1.05 nrd=1.55 
m41 14 8 15 1 penh l=8e-07 w=2.2e-06 
+ as=5.08e-12 ad=2.42e-12 ps=6.39e-06 pd=4.4e-06 
+ nrs=1.05 nrd=0.5 
m42 14 4 15 0 nenh l=8e-07 w=2.2e-06 
+ as=3.68e-12 ad=2.42e-12 ps=5.2e-06 pd=4.4e-06 
+ nrs=0.76 nrd=0.5 
m43 14 4 20 0 nenh l=8e-07 w=2.2e-06 
+ as=3.68e-12 ad=1.408e-11 ps=5.2e-06 pd=1.72e-05 
+ nrs=0.76 nrd=2.91 
m44 12 14 4 0 nenh l=8e-07 w=1.12e-05 
+ as=8.33e-12 ad=2.614e-11 ps=1.285e-05 pd=1.936e-05 
+ nrs=0.07 nrd=0.21 
m45 4 14 12 0 nenh l=8e-07 w=1e-05 
+ as=2.334e-11 ad=7.44e-12 ps=1.729e-05 pd=1.147e-05 
+ nrs=0.23 nrd=0.07 
m46 0 13 14 0 nenh l=8e-07 w=2.2e-06 
+ as=2.059e-11 ad=3.68e-12 ps=9.94e-06 pd=5.2e-06 
+ nrs=4.25 nrd=0.76 
m47 0 15 13 0 nenh l=8e-07 w=9e-06 
+ as=8.424e-11 ad=1.224e-11 ps=4.066e-05 pd=1.64e-05 
+ nrs=1.04 nrd=0.15 
m48 21 19 1 1 penh l=8e-07 w=8e-06 
+ as=1.76e-11 ad=1.465e-11 ps=2.04e-05 pd=1.845e-05 
+ nrs=0.28 nrd=0.23 
m49 0 19 21 0 nenh l=8e-07 w=2.2e-06 
+ as=2.059e-11 ad=4.84e-12 ps=9.94e-06 pd=8.8e-06 
+ nrs=4.25 nrd=1 
m50 22 23 4 1 penh l=8e-07 w=1e-05 
+ as=1.086e-11 ad=9.39e-12 ps=1.413e-05 pd=1.239e-05 
+ nrs=0.11 nrd=0.09 
m51 4 23 22 1 penh l=8e-07 w=1.08e-05 
+ as=1.015e-11 ad=1.173e-11 ps=1.338e-05 pd=1.526e-05 
+ nrs=0.09 nrd=0.1 
m52 22 23 4 1 penh l=8e-07 w=1e-05 
+ as=1.086e-11 ad=9.39e-12 ps=1.413e-05 pd=1.239e-05 
+ nrs=0.11 nrd=0.09 
m53 4 23 22 1 penh l=8e-07 w=1.1e-05 
+ as=1.033e-11 ad=1.195e-11 ps=1.363e-05 pd=1.554e-05 
+ nrs=0.09 nrd=0.1 
m54 22 23 4 1 penh l=8e-07 w=1e-05 
+ as=1.086e-11 ad=9.39e-12 ps=1.413e-05 pd=1.239e-05 
+ nrs=0.11 nrd=0.09 
m55 22 24 4 0 nenh l=8e-07 w=1e-05 
+ as=7.44e-12 ad=2.334e-11 ps=1.147e-05 pd=1.729e-05 
+ nrs=0.07 nrd=0.23 
m56 4 24 22 0 nenh l=8e-07 w=1.12e-05 
+ as=2.614e-11 ad=8.33e-12 ps=1.936e-05 pd=1.285e-05 
+ nrs=0.21 nrd=0.07 
m57 24 23 0 0 nenh l=8e-07 w=2.2e-06 
+ as=4.04e-12 ad=2.059e-11 ps=5.33e-06 pd=9.94e-06 
+ nrs=0.83 nrd=4.25 
m58 22 24 4 0 nenh l=8e-07 w=1e-05 
+ as=7.44e-12 ad=2.334e-11 ps=1.147e-05 pd=1.729e-05 
+ nrs=0.07 nrd=0.23 
m59 1 23 24 1 penh l=8e-07 w=8e-06 
+ as=1.465e-11 ad=1.889e-11 ps=1.845e-05 pd=2.323e-05 
+ nrs=0.23 nrd=0.3 
m60 4 24 22 0 nenh l=8e-07 w=1.12e-05 
+ as=2.614e-11 ad=8.33e-12 ps=1.936e-05 pd=1.285e-05 
+ nrs=0.21 nrd=0.07 
m61 25 8 24 1 penh l=8e-07 w=2.2e-06 
+ as=7.48e-12 ad=5.19e-12 ps=1.12e-05 pd=6.39e-06 
+ nrs=1.55 nrd=1.07 
m62 26 8 24 1 penh l=8e-07 w=2.2e-06 
+ as=2.42e-12 ad=5.19e-12 ps=4.4e-06 pd=6.39e-06 
+ nrs=0.5 nrd=1.07 
m63 26 4 24 0 nenh l=8e-07 w=2.2e-06 
+ as=2.42e-12 ad=4.04e-12 ps=4.4e-06 pd=5.33e-06 
+ nrs=0.5 nrd=0.83 
m64 25 4 24 0 nenh l=8e-07 w=2.2e-06 
+ as=7.48e-12 ad=4.04e-12 ps=1.12e-05 pd=5.33e-06 
+ nrs=1.55 nrd=0.83 
m65 23 26 1 1 penh l=8e-07 w=8e-06 
+ as=1.76e-11 ad=1.465e-11 ps=2.04e-05 pd=1.845e-05 
+ nrs=0.28 nrd=0.23 
m66 22 24 4 0 nenh l=8e-07 w=1e-05 
+ as=7.44e-12 ad=2.334e-11 ps=1.147e-05 pd=1.729e-05 
+ nrs=0.07 nrd=0.23 
m67 0 23 22 0 nenh l=8e-07 w=1.14e-05 
+ as=1.067e-10 ad=8.48e-12 ps=5.151e-05 pd=1.308e-05 
+ nrs=0.82 nrd=0.07 
m68 27 11 26 1 penh l=8e-07 w=2.2e-06 
+ as=4.84e-12 ad=2.42e-12 ps=6.3e-06 pd=4.4e-06 
+ nrs=1 nrd=0.5 
m69 4 29 28 1 penh l=8e-07 w=1e-05 
+ as=9.39e-12 ad=1.112e-11 ps=1.239e-05 pd=1.419e-05 
+ nrs=0.09 nrd=0.11 
m70 28 29 0 0 nenh l=8e-07 w=1.14e-05 
+ as=8.48e-12 ad=1.067e-10 ps=1.308e-05 pd=5.151e-05 
+ nrs=0.07 nrd=0.82 
m71 28 29 4 1 penh l=8e-07 w=1.1e-05 
+ as=1.223e-11 ad=1.033e-11 ps=1.56e-05 pd=1.363e-05 
+ nrs=0.1 nrd=0.09 
m72 4 29 28 1 penh l=8e-07 w=1e-05 
+ as=9.39e-12 ad=1.112e-11 ps=1.239e-05 pd=1.419e-05 
+ nrs=0.09 nrd=0.11 
m73 28 29 4 1 penh l=8e-07 w=1.06e-05 
+ as=1.178e-11 ad=9.96e-12 ps=1.504e-05 pd=1.313e-05 
+ nrs=0.1 nrd=0.09 
m74 4 29 28 1 penh l=8e-07 w=1e-05 
+ as=9.39e-12 ad=1.112e-11 ps=1.239e-05 pd=1.419e-05 
+ nrs=0.09 nrd=0.11 
m75 4 30 28 0 nenh l=8e-07 w=1e-05 
+ as=2.334e-11 ad=7.44e-12 ps=1.729e-05 pd=1.147e-05 
+ nrs=0.23 nrd=0.07 
m76 1 31 29 1 penh l=8e-07 w=8e-06 
+ as=1.465e-11 ad=1.76e-11 ps=1.845e-05 pd=2.04e-05 
+ nrs=0.23 nrd=0.28 
m77 28 30 4 0 nenh l=8e-07 w=1.12e-05 
+ as=8.33e-12 ad=2.614e-11 ps=1.285e-05 pd=1.936e-05 
+ nrs=0.07 nrd=0.21 
m78 4 30 28 0 nenh l=8e-07 w=1e-05 
+ as=2.334e-11 ad=7.44e-12 ps=1.729e-05 pd=1.147e-05 
+ nrs=0.23 nrd=0.07 
m79 30 29 1 1 penh l=8e-07 w=8e-06 
+ as=1.848e-11 ad=1.465e-11 ps=2.323e-05 pd=1.845e-05 
+ nrs=0.29 nrd=0.23 
m80 31 11 32 1 penh l=8e-07 w=2.2e-06 
+ as=2.42e-12 ad=4.84e-12 ps=4.4e-06 pd=6.3e-06 
+ nrs=0.5 nrd=1 
m81 27 17 26 0 nenh l=8e-07 w=2.2e-06 
+ as=4.84e-12 ad=2.42e-12 ps=8.8e-06 pd=4.4e-06 
+ nrs=1 nrd=0.5 
m82 0 26 23 0 nenh l=8e-07 w=9e-06 
+ as=8.424e-11 ad=1.248e-11 ps=4.066e-05 pd=1.64e-05 
+ nrs=1.04 nrd=0.15 
m83 32 33 0 0 nenh l=8e-07 w=2.2e-06 
+ as=4.84e-12 ad=2.059e-11 ps=8.8e-06 pd=9.94e-06 
+ nrs=1 nrd=4.25 
m84 1 33 32 1 penh l=8e-07 w=8e-06 
+ as=1.465e-11 ad=1.76e-11 ps=1.845e-05 pd=2.29e-05 
+ nrs=0.23 nrd=0.28 
m85 33 25 0 0 nenh l=8e-07 w=8e-06 
+ as=1.508e-11 ad=7.488e-11 ps=2.4e-05 pd=3.615e-05 
+ nrs=0.24 nrd=1.17 
m86 33 25 1 1 penh l=8e-07 w=8e-06 
+ as=1.76e-11 ad=1.465e-11 ps=2.04e-05 pd=1.845e-05 
+ nrs=0.28 nrd=0.23 
m87 31 17 32 0 nenh l=8e-07 w=2.2e-06 
+ as=2.42e-12 ad=4.84e-12 ps=4.4e-06 pd=8.8e-06 
+ nrs=0.5 nrd=1 
m88 34 35 0 0 nenh l=8e-07 w=8e-06 
+ as=1.772e-11 ad=7.488e-11 ps=2.4e-05 pd=3.615e-05 
+ nrs=0.28 nrd=1.17 
m89 1 35 34 1 penh l=8e-07 w=8e-06 
+ as=1.465e-11 ad=1.76e-11 ps=1.845e-05 pd=2.04e-05 
+ nrs=0.23 nrd=0.28 
m90 30 8 35 1 penh l=8e-07 w=2.2e-06 
+ as=5.08e-12 ad=7.48e-12 ps=6.39e-06 pd=1.12e-05 
+ nrs=1.05 nrd=1.55 
m91 30 8 31 1 penh l=8e-07 w=2.2e-06 
+ as=5.08e-12 ad=2.42e-12 ps=6.39e-06 pd=4.4e-06 
+ nrs=1.05 nrd=0.5 
m92 30 4 31 0 nenh l=8e-07 w=2.2e-06 
+ as=3.68e-12 ad=2.42e-12 ps=5.2e-06 pd=4.4e-06 
+ nrs=0.76 nrd=0.5 
m93 30 4 35 0 nenh l=8e-07 w=2.2e-06 
+ as=3.68e-12 ad=1.408e-11 ps=5.2e-06 pd=1.72e-05 
+ nrs=0.76 nrd=2.91 
m94 28 30 4 0 nenh l=8e-07 w=1.12e-05 
+ as=8.33e-12 ad=2.614e-11 ps=1.285e-05 pd=1.936e-05 
+ nrs=0.07 nrd=0.21 
m95 4 30 28 0 nenh l=8e-07 w=1e-05 
+ as=2.334e-11 ad=7.44e-12 ps=1.729e-05 pd=1.147e-05 
+ nrs=0.23 nrd=0.07 
m96 0 29 30 0 nenh l=8e-07 w=2.2e-06 
+ as=2.059e-11 ad=3.68e-12 ps=9.94e-06 pd=5.2e-06 
+ nrs=4.25 nrd=0.76 
m97 0 31 29 0 nenh l=8e-07 w=9e-06 
+ as=8.424e-11 ad=1.224e-11 ps=4.066e-05 pd=1.64e-05 
+ nrs=1.04 nrd=0.15 
m98 10 34 1 1 penh l=8e-07 w=8e-06 
+ as=1.76e-11 ad=1.465e-11 ps=2.29e-05 pd=1.845e-05 
+ nrs=0.28 nrd=0.23 
m99 0 34 10 0 nenh l=8e-07 w=2.2e-06 
+ as=2.059e-11 ad=4.84e-12 ps=9.94e-06 pd=8.8e-06 
+ nrs=4.25 nrd=1 
m100 36 37 4 1 penh l=8e-07 w=1e-05 
+ as=1.086e-11 ad=9.39e-12 ps=1.413e-05 pd=1.239e-05 
+ nrs=0.11 nrd=0.09 
m101 4 37 36 1 penh l=8e-07 w=1.08e-05 
+ as=1.015e-11 ad=1.173e-11 ps=1.338e-05 pd=1.526e-05 
+ nrs=0.09 nrd=0.1 
m102 36 37 4 1 penh l=8e-07 w=1e-05 
+ as=1.086e-11 ad=9.39e-12 ps=1.413e-05 pd=1.239e-05 
+ nrs=0.11 nrd=0.09 
m103 4 37 36 1 penh l=8e-07 w=1.1e-05 
+ as=1.033e-11 ad=1.195e-11 ps=1.363e-05 pd=1.554e-05 
+ nrs=0.09 nrd=0.1 
m104 36 37 4 1 penh l=8e-07 w=1e-05 
+ as=1.086e-11 ad=9.39e-12 ps=1.413e-05 pd=1.239e-05 
+ nrs=0.11 nrd=0.09 
m105 36 38 4 0 nenh l=8e-07 w=1e-05 
+ as=7.44e-12 ad=2.334e-11 ps=1.147e-05 pd=1.729e-05 
+ nrs=0.07 nrd=0.23 
m106 4 38 36 0 nenh l=8e-07 w=1.12e-05 
+ as=2.614e-11 ad=8.33e-12 ps=1.936e-05 pd=1.285e-05 
+ nrs=0.21 nrd=0.07 
m107 38 37 0 0 nenh l=8e-07 w=2.2e-06 
+ as=4.04e-12 ad=2.059e-11 ps=5.33e-06 pd=9.94e-06 
+ nrs=0.83 nrd=4.25 
m108 36 38 4 0 nenh l=8e-07 w=1e-05 
+ as=7.44e-12 ad=2.334e-11 ps=1.147e-05 pd=1.729e-05 
+ nrs=0.07 nrd=0.23 
m109 1 37 38 1 penh l=8e-07 w=8e-06 
+ as=1.465e-11 ad=1.889e-11 ps=1.845e-05 pd=2.323e-05 
+ nrs=0.23 nrd=0.3 
m110 4 38 36 0 nenh l=8e-07 w=1.12e-05 
+ as=2.614e-11 ad=8.33e-12 ps=1.936e-05 pd=1.285e-05 
+ nrs=0.21 nrd=0.07 
m111 39 8 38 1 penh l=8e-07 w=2.2e-06 
+ as=7.48e-12 ad=5.19e-12 ps=1.12e-05 pd=6.39e-06 
+ nrs=1.55 nrd=1.07 
m112 40 8 38 1 penh l=8e-07 w=2.2e-06 
+ as=2.42e-12 ad=5.19e-12 ps=4.4e-06 pd=6.39e-06 
+ nrs=0.5 nrd=1.07 
m113 40 4 38 0 nenh l=8e-07 w=2.2e-06 
+ as=2.42e-12 ad=4.04e-12 ps=4.4e-06 pd=5.33e-06 
+ nrs=0.5 nrd=0.83 
m114 39 4 38 0 nenh l=8e-07 w=2.2e-06 
+ as=7.48e-12 ad=4.04e-12 ps=1.12e-05 pd=5.33e-06 
+ nrs=1.55 nrd=0.83 
m115 37 40 1 1 penh l=8e-07 w=8e-06 
+ as=1.76e-11 ad=1.465e-11 ps=2.04e-05 pd=1.845e-05 
+ nrs=0.28 nrd=0.23 
m116 36 38 4 0 nenh l=8e-07 w=1e-05 
+ as=7.44e-12 ad=2.334e-11 ps=1.147e-05 pd=1.729e-05 
+ nrs=0.07 nrd=0.23 
m117 0 37 36 0 nenh l=8e-07 w=1.14e-05 
+ as=1.067e-10 ad=8.48e-12 ps=5.151e-05 pd=1.308e-05 
+ nrs=0.82 nrd=0.07 
m118 41 11 40 1 penh l=8e-07 w=2.2e-06 
+ as=4.84e-12 ad=2.42e-12 ps=6.3e-06 pd=4.4e-06 
+ nrs=1 nrd=0.5 
m119 4 43 42 1 penh l=8e-07 w=1e-05 
+ as=9.39e-12 ad=1.112e-11 ps=1.239e-05 pd=1.419e-05 
+ nrs=0.09 nrd=0.11 
m120 42 43 0 0 nenh l=8e-07 w=1.14e-05 
+ as=8.48e-12 ad=1.067e-10 ps=1.308e-05 pd=5.151e-05 
+ nrs=0.07 nrd=0.82 
m121 42 43 4 1 penh l=8e-07 w=1.1e-05 
+ as=1.223e-11 ad=1.033e-11 ps=1.56e-05 pd=1.363e-05 
+ nrs=0.1 nrd=0.09 
m122 4 43 42 1 penh l=8e-07 w=1e-05 
+ as=9.39e-12 ad=1.112e-11 ps=1.239e-05 pd=1.419e-05 
+ nrs=0.09 nrd=0.11 
m123 42 43 4 1 penh l=8e-07 w=1.06e-05 
+ as=1.178e-11 ad=9.96e-12 ps=1.504e-05 pd=1.313e-05 
+ nrs=0.1 nrd=0.09 
m124 4 43 42 1 penh l=8e-07 w=1e-05 
+ as=9.39e-12 ad=1.112e-11 ps=1.239e-05 pd=1.419e-05 
+ nrs=0.09 nrd=0.11 
m125 4 44 42 0 nenh l=8e-07 w=1e-05 
+ as=2.334e-11 ad=7.44e-12 ps=1.729e-05 pd=1.147e-05 
+ nrs=0.23 nrd=0.07 
m126 1 45 43 1 penh l=8e-07 w=8e-06 
+ as=1.465e-11 ad=1.76e-11 ps=1.845e-05 pd=2.04e-05 
+ nrs=0.23 nrd=0.28 
m127 42 44 4 0 nenh l=8e-07 w=1.12e-05 
+ as=8.33e-12 ad=2.614e-11 ps=1.285e-05 pd=1.936e-05 
+ nrs=0.07 nrd=0.21 
m128 4 44 42 0 nenh l=8e-07 w=1e-05 
+ as=2.334e-11 ad=7.44e-12 ps=1.729e-05 pd=1.147e-05 
+ nrs=0.23 nrd=0.07 
m129 44 43 1 1 penh l=8e-07 w=8e-06 
+ as=1.848e-11 ad=1.465e-11 ps=2.323e-05 pd=1.845e-05 
+ nrs=0.29 nrd=0.23 
m130 45 11 46 1 penh l=8e-07 w=2.2e-06 
+ as=2.42e-12 ad=4.84e-12 ps=4.4e-06 pd=6.3e-06 
+ nrs=0.5 nrd=1 
m131 41 17 40 0 nenh l=8e-07 w=2.2e-06 
+ as=4.84e-12 ad=2.42e-12 ps=8.8e-06 pd=4.4e-06 
+ nrs=1 nrd=0.5 
m132 0 40 37 0 nenh l=8e-07 w=9e-06 
+ as=8.424e-11 ad=1.248e-11 ps=4.066e-05 pd=1.64e-05 
+ nrs=1.04 nrd=0.15 
m133 46 47 0 0 nenh l=8e-07 w=2.2e-06 
+ as=4.84e-12 ad=2.059e-11 ps=8.8e-06 pd=9.94e-06 
+ nrs=1 nrd=4.25 
m134 1 47 46 1 penh l=8e-07 w=8e-06 
+ as=1.465e-11 ad=1.76e-11 ps=1.845e-05 pd=2.29e-05 
+ nrs=0.23 nrd=0.28 
m135 47 39 0 0 nenh l=8e-07 w=8e-06 
+ as=1.508e-11 ad=7.488e-11 ps=2.4e-05 pd=3.615e-05 
+ nrs=0.24 nrd=1.17 
m136 47 39 1 1 penh l=8e-07 w=8e-06 
+ as=1.76e-11 ad=1.465e-11 ps=2.04e-05 pd=1.845e-05 
+ nrs=0.28 nrd=0.23 
m137 45 17 46 0 nenh l=8e-07 w=2.2e-06 
+ as=2.42e-12 ad=4.84e-12 ps=4.4e-06 pd=8.8e-06 
+ nrs=0.5 nrd=1 
m138 48 49 0 0 nenh l=8e-07 w=8e-06 
+ as=1.772e-11 ad=7.488e-11 ps=2.4e-05 pd=3.615e-05 
+ nrs=0.28 nrd=1.17 
m139 1 49 48 1 penh l=8e-07 w=8e-06 
+ as=1.465e-11 ad=1.76e-11 ps=1.845e-05 pd=2.04e-05 
+ nrs=0.23 nrd=0.28 
m140 44 8 49 1 penh l=8e-07 w=2.2e-06 
+ as=5.08e-12 ad=7.48e-12 ps=6.39e-06 pd=1.12e-05 
+ nrs=1.05 nrd=1.55 
m141 44 8 45 1 penh l=8e-07 w=2.2e-06 
+ as=5.08e-12 ad=2.42e-12 ps=6.39e-06 pd=4.4e-06 
+ nrs=1.05 nrd=0.5 
m142 44 4 45 0 nenh l=8e-07 w=2.2e-06 
+ as=3.68e-12 ad=2.42e-12 ps=5.2e-06 pd=4.4e-06 
+ nrs=0.76 nrd=0.5 
m143 44 4 49 0 nenh l=8e-07 w=2.2e-06 
+ as=3.68e-12 ad=1.408e-11 ps=5.2e-06 pd=1.72e-05 
+ nrs=0.76 nrd=2.91 
m144 42 44 4 0 nenh l=8e-07 w=1.12e-05 
+ as=8.33e-12 ad=2.614e-11 ps=1.285e-05 pd=1.936e-05 
+ nrs=0.07 nrd=0.21 
m145 4 44 42 0 nenh l=8e-07 w=1e-05 
+ as=2.334e-11 ad=7.44e-12 ps=1.729e-05 pd=1.147e-05 
+ nrs=0.23 nrd=0.07 
m146 0 43 44 0 nenh l=8e-07 w=2.2e-06 
+ as=2.059e-11 ad=3.68e-12 ps=9.94e-06 pd=5.2e-06 
+ nrs=4.25 nrd=0.76 
m147 0 45 43 0 nenh l=8e-07 w=9e-06 
+ as=8.424e-11 ad=1.224e-11 ps=4.066e-05 pd=1.64e-05 
+ nrs=1.04 nrd=0.15 
m148 27 48 1 1 penh l=8e-07 w=8e-06 
+ as=1.76e-11 ad=1.465e-11 ps=2.29e-05 pd=1.845e-05 
+ nrs=0.28 nrd=0.23 
m149 0 48 27 0 nenh l=8e-07 w=2.2e-06 
+ as=2.059e-11 ad=4.84e-12 ps=9.94e-06 pd=8.8e-06 
+ nrs=4.25 nrd=1 
m150 50 51 4 1 penh l=8e-07 w=1e-05 
+ as=1.086e-11 ad=9.39e-12 ps=1.413e-05 pd=1.239e-05 
+ nrs=0.11 nrd=0.09 
m151 4 51 50 1 penh l=8e-07 w=1.08e-05 
+ as=1.015e-11 ad=1.173e-11 ps=1.338e-05 pd=1.526e-05 
+ nrs=0.09 nrd=0.1 
m152 50 51 4 1 penh l=8e-07 w=1e-05 
+ as=1.086e-11 ad=9.39e-12 ps=1.413e-05 pd=1.239e-05 
+ nrs=0.11 nrd=0.09 
m153 4 51 50 1 penh l=8e-07 w=1.1e-05 
+ as=1.033e-11 ad=1.195e-11 ps=1.363e-05 pd=1.554e-05 
+ nrs=0.09 nrd=0.1 
m154 50 51 4 1 penh l=8e-07 w=1e-05 
+ as=1.086e-11 ad=9.39e-12 ps=1.413e-05 pd=1.239e-05 
+ nrs=0.11 nrd=0.09 
m155 50 52 4 0 nenh l=8e-07 w=1e-05 
+ as=7.44e-12 ad=2.334e-11 ps=1.147e-05 pd=1.729e-05 
+ nrs=0.07 nrd=0.23 
m156 4 52 50 0 nenh l=8e-07 w=1.12e-05 
+ as=2.614e-11 ad=8.33e-12 ps=1.936e-05 pd=1.285e-05 
+ nrs=0.21 nrd=0.07 
m157 52 51 0 0 nenh l=8e-07 w=2.2e-06 
+ as=4.04e-12 ad=2.059e-11 ps=5.33e-06 pd=9.94e-06 
+ nrs=0.83 nrd=4.25 
m158 50 52 4 0 nenh l=8e-07 w=1e-05 
+ as=7.44e-12 ad=2.334e-11 ps=1.147e-05 pd=1.729e-05 
+ nrs=0.07 nrd=0.23 
m159 1 51 52 1 penh l=8e-07 w=8e-06 
+ as=1.465e-11 ad=1.889e-11 ps=1.845e-05 pd=2.323e-05 
+ nrs=0.23 nrd=0.3 
m160 4 52 50 0 nenh l=8e-07 w=1.12e-05 
+ as=2.614e-11 ad=8.33e-12 ps=1.936e-05 pd=1.285e-05 
+ nrs=0.21 nrd=0.07 
m161 53 8 52 1 penh l=8e-07 w=2.2e-06 
+ as=7.48e-12 ad=5.19e-12 ps=1.12e-05 pd=6.39e-06 
+ nrs=1.55 nrd=1.07 
m162 54 8 52 1 penh l=8e-07 w=2.2e-06 
+ as=2.42e-12 ad=5.19e-12 ps=4.4e-06 pd=6.39e-06 
+ nrs=0.5 nrd=1.07 
m163 54 4 52 0 nenh l=8e-07 w=2.2e-06 
+ as=2.42e-12 ad=4.04e-12 ps=4.4e-06 pd=5.33e-06 
+ nrs=0.5 nrd=0.83 
m164 53 4 52 0 nenh l=8e-07 w=2.2e-06 
+ as=7.48e-12 ad=4.04e-12 ps=1.12e-05 pd=5.33e-06 
+ nrs=1.55 nrd=0.83 
m165 51 54 1 1 penh l=8e-07 w=8e-06 
+ as=1.76e-11 ad=1.465e-11 ps=2.04e-05 pd=1.845e-05 
+ nrs=0.28 nrd=0.23 
m166 50 52 4 0 nenh l=8e-07 w=1e-05 
+ as=7.44e-12 ad=2.334e-11 ps=1.147e-05 pd=1.729e-05 
+ nrs=0.07 nrd=0.23 
m167 0 51 50 0 nenh l=8e-07 w=1.14e-05 
+ as=1.067e-10 ad=8.48e-12 ps=5.151e-05 pd=1.308e-05 
+ nrs=0.82 nrd=0.07 
m168 55 11 54 1 penh l=8e-07 w=2.2e-06 
+ as=4.84e-12 ad=2.42e-12 ps=7.52e-06 pd=4.4e-06 
+ nrs=1 nrd=0.5 
m169 4 57 56 1 penh l=8e-07 w=1e-05 
+ as=9.39e-12 ad=1.112e-11 ps=1.239e-05 pd=1.419e-05 
+ nrs=0.09 nrd=0.11 
m170 56 57 0 0 nenh l=8e-07 w=1.14e-05 
+ as=8.48e-12 ad=1.067e-10 ps=1.308e-05 pd=5.151e-05 
+ nrs=0.07 nrd=0.82 
m171 56 57 4 1 penh l=8e-07 w=1.1e-05 
+ as=1.223e-11 ad=1.033e-11 ps=1.56e-05 pd=1.363e-05 
+ nrs=0.1 nrd=0.09 
m172 4 57 56 1 penh l=8e-07 w=1e-05 
+ as=9.39e-12 ad=1.112e-11 ps=1.239e-05 pd=1.419e-05 
+ nrs=0.09 nrd=0.11 
m173 56 57 4 1 penh l=8e-07 w=1.06e-05 
+ as=1.178e-11 ad=9.96e-12 ps=1.504e-05 pd=1.313e-05 
+ nrs=0.1 nrd=0.09 
m174 4 57 56 1 penh l=8e-07 w=1e-05 
+ as=9.39e-12 ad=1.112e-11 ps=1.239e-05 pd=1.419e-05 
+ nrs=0.09 nrd=0.11 
m175 4 58 56 0 nenh l=8e-07 w=1e-05 
+ as=2.334e-11 ad=7.44e-12 ps=1.729e-05 pd=1.147e-05 
+ nrs=0.23 nrd=0.07 
m176 1 59 57 1 penh l=8e-07 w=8e-06 
+ as=1.465e-11 ad=1.76e-11 ps=1.845e-05 pd=2.04e-05 
+ nrs=0.23 nrd=0.28 
m177 56 58 4 0 nenh l=8e-07 w=1.12e-05 
+ as=8.33e-12 ad=2.614e-11 ps=1.285e-05 pd=1.936e-05 
+ nrs=0.07 nrd=0.21 
m178 4 58 56 0 nenh l=8e-07 w=1e-05 
+ as=2.334e-11 ad=7.44e-12 ps=1.729e-05 pd=1.147e-05 
+ nrs=0.23 nrd=0.07 
m179 58 57 1 1 penh l=8e-07 w=8e-06 
+ as=1.848e-11 ad=1.465e-11 ps=2.323e-05 pd=1.845e-05 
+ nrs=0.29 nrd=0.23 
m180 59 11 60 1 penh l=8e-07 w=2.2e-06 
+ as=2.42e-12 ad=4.84e-12 ps=4.4e-06 pd=6.3e-06 
+ nrs=0.5 nrd=1 
m181 55 17 54 0 nenh l=8e-07 w=2.2e-06 
+ as=4.84e-12 ad=2.42e-12 ps=7.52e-06 pd=4.4e-06 
+ nrs=1 nrd=0.5 
m182 0 54 51 0 nenh l=8e-07 w=9e-06 
+ as=8.424e-11 ad=1.248e-11 ps=4.066e-05 pd=1.64e-05 
+ nrs=1.04 nrd=0.15 
m183 60 61 0 0 nenh l=8e-07 w=2.2e-06 
+ as=4.84e-12 ad=2.059e-11 ps=8.8e-06 pd=9.94e-06 
+ nrs=1 nrd=4.25 
m184 1 61 60 1 penh l=8e-07 w=8e-06 
+ as=1.465e-11 ad=1.76e-11 ps=1.845e-05 pd=2.29e-05 
+ nrs=0.23 nrd=0.28 
m185 61 53 0 0 nenh l=8e-07 w=8e-06 
+ as=1.508e-11 ad=7.488e-11 ps=2.4e-05 pd=3.615e-05 
+ nrs=0.24 nrd=1.17 
m186 61 53 1 1 penh l=8e-07 w=8e-06 
+ as=1.76e-11 ad=1.465e-11 ps=2.04e-05 pd=1.845e-05 
+ nrs=0.28 nrd=0.23 
m187 59 17 60 0 nenh l=8e-07 w=2.2e-06 
+ as=2.42e-12 ad=4.84e-12 ps=4.4e-06 pd=8.8e-06 
+ nrs=0.5 nrd=1 
m188 62 63 0 0 nenh l=8e-07 w=8e-06 
+ as=1.772e-11 ad=7.488e-11 ps=2.4e-05 pd=3.615e-05 
+ nrs=0.28 nrd=1.17 
m189 1 63 62 1 penh l=8e-07 w=8e-06 
+ as=1.465e-11 ad=1.76e-11 ps=1.845e-05 pd=2.04e-05 
+ nrs=0.23 nrd=0.28 
m190 58 8 63 1 penh l=8e-07 w=2.2e-06 
+ as=5.08e-12 ad=7.48e-12 ps=6.39e-06 pd=1.12e-05 
+ nrs=1.05 nrd=1.55 
m191 58 8 59 1 penh l=8e-07 w=2.2e-06 
+ as=5.08e-12 ad=2.42e-12 ps=6.39e-06 pd=4.4e-06 
+ nrs=1.05 nrd=0.5 
m192 58 4 59 0 nenh l=8e-07 w=2.2e-06 
+ as=3.68e-12 ad=2.42e-12 ps=5.2e-06 pd=4.4e-06 
+ nrs=0.76 nrd=0.5 
m193 58 4 63 0 nenh l=8e-07 w=2.2e-06 
+ as=3.68e-12 ad=1.408e-11 ps=5.2e-06 pd=1.72e-05 
+ nrs=0.76 nrd=2.91 
m194 56 58 4 0 nenh l=8e-07 w=1.12e-05 
+ as=8.33e-12 ad=2.614e-11 ps=1.285e-05 pd=1.936e-05 
+ nrs=0.07 nrd=0.21 
m195 4 58 56 0 nenh l=8e-07 w=1e-05 
+ as=2.334e-11 ad=7.44e-12 ps=1.729e-05 pd=1.147e-05 
+ nrs=0.23 nrd=0.07 
m196 0 57 58 0 nenh l=8e-07 w=2.2e-06 
+ as=2.059e-11 ad=3.68e-12 ps=9.94e-06 pd=5.2e-06 
+ nrs=4.25 nrd=0.76 
m197 0 59 57 0 nenh l=8e-07 w=9e-06 
+ as=8.424e-11 ad=1.224e-11 ps=4.066e-05 pd=1.64e-05 
+ nrs=1.04 nrd=0.15 
m198 41 62 1 1 penh l=8e-07 w=8e-06 
+ as=1.76e-11 ad=1.465e-11 ps=2.29e-05 pd=1.845e-05 
+ nrs=0.28 nrd=0.23 
m199 0 62 41 0 nenh l=8e-07 w=2.2e-06 
+ as=2.059e-11 ad=4.84e-12 ps=9.94e-06 pd=8.8e-06 
+ nrs=4.25 nrd=1 
m200 64 65 1 1 penh l=8e-07 w=2.2e-06 
+ as=4.84e-12 ad=3.03e-12 ps=8.8e-06 pd=5.5e-06 
+ nrs=1 nrd=0.63 
m201 65 64 1 1 penh l=8e-07 w=2.2e-06 
+ as=4.84e-12 ad=3.03e-12 ps=8.8e-06 pd=5.5e-06 
+ nrs=1 nrd=0.63 
m202 66 67 1 1 penh l=8e-07 w=2.2e-06 
+ as=4.84e-12 ad=3.03e-12 ps=8.8e-06 pd=5.5e-06 
+ nrs=1 nrd=0.63 
m203 67 66 1 1 penh l=8e-07 w=2.2e-06 
+ as=4.84e-12 ad=3.03e-12 ps=8.8e-06 pd=5.5e-06 
+ nrs=1 nrd=0.63 
m204 64 65 0 0 nenh l=8e-07 w=6.8e-06 
+ as=7.21e-12 ad=9.44e-12 ps=1.442e-05 pd=1.28e-05 
+ nrs=0.16 nrd=0.2 
m205 68 3 64 0 nenh l=8e-07 w=3.2e-06 
+ as=4.39e-12 ad=3.39e-12 ps=6.1e-06 pd=6.78e-06 
+ nrs=0.43 nrd=0.33 
m206 65 64 0 0 nenh l=8e-07 w=6.8e-06 
+ as=7.21e-12 ad=9.44e-12 ps=1.442e-05 pd=1.28e-05 
+ nrs=0.16 nrd=0.2 
m207 66 67 0 0 nenh l=8e-07 w=6.8e-06 
+ as=7.21e-12 ad=9.44e-12 ps=1.442e-05 pd=1.28e-05 
+ nrs=0.16 nrd=0.2 
m208 69 3 65 0 nenh l=8e-07 w=3.2e-06 
+ as=4.33e-12 ad=3.39e-12 ps=5.75e-06 pd=6.78e-06 
+ nrs=0.42 nrd=0.33 
m209 70 3 66 0 nenh l=8e-07 w=3.2e-06 
+ as=4.45e-12 ad=3.39e-12 ps=5.78e-06 pd=6.78e-06 
+ nrs=0.43 nrd=0.33 
m210 67 66 0 0 nenh l=8e-07 w=6.8e-06 
+ as=7.21e-12 ad=9.44e-12 ps=1.442e-05 pd=1.28e-05 
+ nrs=0.16 nrd=0.2 
m211 71 3 67 0 nenh l=8e-07 w=3.2e-06 
+ as=4.47e-12 ad=3.39e-12 ps=6.1e-06 pd=6.78e-06 
+ nrs=0.44 nrd=0.33 
m212 72 12 68 0 nenh l=8e-07 w=3.2e-06 
+ as=3.39e-12 ad=4.39e-12 ps=6.78e-06 pd=6.1e-06 
+ nrs=0.33 nrd=0.43 
m213 72 73 0 0 nenh l=8e-07 w=6.8e-06 
+ as=7.21e-12 ad=9.44e-12 ps=1.442e-05 pd=1.28e-05 
+ nrs=0.16 nrd=0.2 
m214 73 12 69 0 nenh l=8e-07 w=3.2e-06 
+ as=3.39e-12 ad=4.33e-12 ps=6.78e-06 pd=5.75e-06 
+ nrs=0.33 nrd=0.42 
m215 74 12 70 0 nenh l=8e-07 w=3.2e-06 
+ as=3.39e-12 ad=4.45e-12 ps=6.78e-06 pd=5.78e-06 
+ nrs=0.33 nrd=0.43 
m216 0 72 73 0 nenh l=8e-07 w=6.8e-06 
+ as=9.44e-12 ad=7.21e-12 ps=1.28e-05 pd=1.442e-05 
+ nrs=0.2 nrd=0.16 
m217 74 75 0 0 nenh l=8e-07 w=6.8e-06 
+ as=7.21e-12 ad=9.44e-12 ps=1.442e-05 pd=1.28e-05 
+ nrs=0.16 nrd=0.2 
m218 75 12 71 0 nenh l=8e-07 w=3.2e-06 
+ as=3.39e-12 ad=4.47e-12 ps=6.78e-06 pd=6.1e-06 
+ nrs=0.33 nrd=0.44 
m219 0 74 75 0 nenh l=8e-07 w=6.8e-06 
+ as=9.44e-12 ad=7.21e-12 ps=1.28e-05 pd=1.442e-05 
+ nrs=0.2 nrd=0.16 
m220 1 73 72 1 penh l=8e-07 w=2.2e-06 
+ as=3.03e-12 ad=4.84e-12 ps=5.5e-06 pd=8.8e-06 
+ nrs=0.63 nrd=1 
m221 1 72 73 1 penh l=8e-07 w=2.2e-06 
+ as=3.03e-12 ad=4.84e-12 ps=5.5e-06 pd=8.8e-06 
+ nrs=0.63 nrd=1 
m222 1 75 74 1 penh l=8e-07 w=2.2e-06 
+ as=3.03e-12 ad=4.84e-12 ps=5.5e-06 pd=8.8e-06 
+ nrs=0.63 nrd=1 
m223 1 74 75 1 penh l=8e-07 w=2.2e-06 
+ as=3.03e-12 ad=4.84e-12 ps=5.5e-06 pd=8.8e-06 
+ nrs=0.63 nrd=1 
m224 76 77 1 1 penh l=8e-07 w=2.2e-06 
+ as=4.84e-12 ad=3.03e-12 ps=8.8e-06 pd=5.5e-06 
+ nrs=1 nrd=0.63 
m225 77 76 1 1 penh l=8e-07 w=2.2e-06 
+ as=4.84e-12 ad=3.03e-12 ps=8.8e-06 pd=5.5e-06 
+ nrs=1 nrd=0.63 
m226 78 79 1 1 penh l=8e-07 w=2.2e-06 
+ as=4.84e-12 ad=3.03e-12 ps=8.8e-06 pd=5.5e-06 
+ nrs=1 nrd=0.63 
m227 79 78 1 1 penh l=8e-07 w=2.2e-06 
+ as=4.84e-12 ad=3.03e-12 ps=8.8e-06 pd=5.5e-06 
+ nrs=1 nrd=0.63 
m228 76 77 0 0 nenh l=8e-07 w=6.8e-06 
+ as=7.21e-12 ad=9.44e-12 ps=1.442e-05 pd=1.28e-05 
+ nrs=0.16 nrd=0.2 
m229 68 22 76 0 nenh l=8e-07 w=3.2e-06 
+ as=4.39e-12 ad=3.39e-12 ps=6.1e-06 pd=6.78e-06 
+ nrs=0.43 nrd=0.33 
m230 77 76 0 0 nenh l=8e-07 w=6.8e-06 
+ as=7.21e-12 ad=9.44e-12 ps=1.442e-05 pd=1.28e-05 
+ nrs=0.16 nrd=0.2 
m231 78 79 0 0 nenh l=8e-07 w=6.8e-06 
+ as=7.21e-12 ad=9.44e-12 ps=1.442e-05 pd=1.28e-05 
+ nrs=0.16 nrd=0.2 
m232 69 22 77 0 nenh l=8e-07 w=3.2e-06 
+ as=4.33e-12 ad=3.39e-12 ps=5.75e-06 pd=6.78e-06 
+ nrs=0.42 nrd=0.33 
m233 70 22 78 0 nenh l=8e-07 w=3.2e-06 
+ as=4.45e-12 ad=3.39e-12 ps=5.78e-06 pd=6.78e-06 
+ nrs=0.43 nrd=0.33 
m234 79 78 0 0 nenh l=8e-07 w=6.8e-06 
+ as=7.21e-12 ad=9.44e-12 ps=1.442e-05 pd=1.28e-05 
+ nrs=0.16 nrd=0.2 
m235 71 22 79 0 nenh l=8e-07 w=3.2e-06 
+ as=4.47e-12 ad=3.39e-12 ps=6.1e-06 pd=6.78e-06 
+ nrs=0.44 nrd=0.33 
m236 80 28 68 0 nenh l=8e-07 w=3.2e-06 
+ as=3.39e-12 ad=4.39e-12 ps=6.78e-06 pd=6.1e-06 
+ nrs=0.33 nrd=0.43 
m237 80 81 0 0 nenh l=8e-07 w=6.8e-06 
+ as=7.21e-12 ad=9.44e-12 ps=1.442e-05 pd=1.28e-05 
+ nrs=0.16 nrd=0.2 
m238 81 28 69 0 nenh l=8e-07 w=3.2e-06 
+ as=3.39e-12 ad=4.33e-12 ps=6.78e-06 pd=5.75e-06 
+ nrs=0.33 nrd=0.42 
m239 82 28 70 0 nenh l=8e-07 w=3.2e-06 
+ as=3.39e-12 ad=4.45e-12 ps=6.78e-06 pd=5.78e-06 
+ nrs=0.33 nrd=0.43 
m240 0 80 81 0 nenh l=8e-07 w=6.8e-06 
+ as=9.44e-12 ad=7.21e-12 ps=1.28e-05 pd=1.442e-05 
+ nrs=0.2 nrd=0.16 
m241 82 83 0 0 nenh l=8e-07 w=6.8e-06 
+ as=7.21e-12 ad=9.44e-12 ps=1.442e-05 pd=1.28e-05 
+ nrs=0.16 nrd=0.2 
m242 83 28 71 0 nenh l=8e-07 w=3.2e-06 
+ as=3.39e-12 ad=4.47e-12 ps=6.78e-06 pd=6.1e-06 
+ nrs=0.33 nrd=0.44 
m243 0 82 83 0 nenh l=8e-07 w=6.8e-06 
+ as=9.44e-12 ad=7.21e-12 ps=1.28e-05 pd=1.442e-05 
+ nrs=0.2 nrd=0.16 
m244 1 81 80 1 penh l=8e-07 w=2.2e-06 
+ as=3.03e-12 ad=4.84e-12 ps=5.5e-06 pd=8.8e-06 
+ nrs=0.63 nrd=1 
m245 1 80 81 1 penh l=8e-07 w=2.2e-06 
+ as=3.03e-12 ad=4.84e-12 ps=5.5e-06 pd=8.8e-06 
+ nrs=0.63 nrd=1 
m246 1 83 82 1 penh l=8e-07 w=2.2e-06 
+ as=3.03e-12 ad=4.84e-12 ps=5.5e-06 pd=8.8e-06 
+ nrs=0.63 nrd=1 
m247 1 82 83 1 penh l=8e-07 w=2.2e-06 
+ as=3.03e-12 ad=4.84e-12 ps=5.5e-06 pd=8.8e-06 
+ nrs=0.63 nrd=1 
m248 84 85 1 1 penh l=8e-07 w=2.2e-06 
+ as=4.84e-12 ad=3.03e-12 ps=8.8e-06 pd=5.5e-06 
+ nrs=1 nrd=0.63 
m249 85 84 1 1 penh l=8e-07 w=2.2e-06 
+ as=4.84e-12 ad=3.03e-12 ps=8.8e-06 pd=5.5e-06 
+ nrs=1 nrd=0.63 
m250 86 87 1 1 penh l=8e-07 w=2.2e-06 
+ as=4.84e-12 ad=3.03e-12 ps=8.8e-06 pd=5.5e-06 
+ nrs=1 nrd=0.63 
m251 87 86 1 1 penh l=8e-07 w=2.2e-06 
+ as=4.84e-12 ad=3.03e-12 ps=8.8e-06 pd=5.5e-06 
+ nrs=1 nrd=0.63 
m252 84 85 0 0 nenh l=8e-07 w=6.8e-06 
+ as=7.21e-12 ad=9.44e-12 ps=1.442e-05 pd=1.28e-05 
+ nrs=0.16 nrd=0.2 
m253 68 36 84 0 nenh l=8e-07 w=3.2e-06 
+ as=4.39e-12 ad=3.39e-12 ps=6.1e-06 pd=6.78e-06 
+ nrs=0.43 nrd=0.33 
m254 85 84 0 0 nenh l=8e-07 w=6.8e-06 
+ as=7.21e-12 ad=9.44e-12 ps=1.442e-05 pd=1.28e-05 
+ nrs=0.16 nrd=0.2 
m255 86 87 0 0 nenh l=8e-07 w=6.8e-06 
+ as=7.21e-12 ad=9.44e-12 ps=1.442e-05 pd=1.28e-05 
+ nrs=0.16 nrd=0.2 
m256 69 36 85 0 nenh l=8e-07 w=3.2e-06 
+ as=4.33e-12 ad=3.39e-12 ps=5.75e-06 pd=6.78e-06 
+ nrs=0.42 nrd=0.33 
m257 70 36 86 0 nenh l=8e-07 w=3.2e-06 
+ as=4.45e-12 ad=3.39e-12 ps=5.78e-06 pd=6.78e-06 
+ nrs=0.43 nrd=0.33 
m258 87 86 0 0 nenh l=8e-07 w=6.8e-06 
+ as=7.21e-12 ad=9.44e-12 ps=1.442e-05 pd=1.28e-05 
+ nrs=0.16 nrd=0.2 
m259 71 36 87 0 nenh l=8e-07 w=3.2e-06 
+ as=4.47e-12 ad=3.39e-12 ps=6.1e-06 pd=6.78e-06 
+ nrs=0.44 nrd=0.33 
m260 88 42 68 0 nenh l=8e-07 w=3.2e-06 
+ as=3.39e-12 ad=4.39e-12 ps=6.78e-06 pd=6.1e-06 
+ nrs=0.33 nrd=0.43 
m261 88 89 0 0 nenh l=8e-07 w=6.8e-06 
+ as=7.21e-12 ad=9.44e-12 ps=1.442e-05 pd=1.28e-05 
+ nrs=0.16 nrd=0.2 
m262 89 42 69 0 nenh l=8e-07 w=3.2e-06 
+ as=3.39e-12 ad=4.33e-12 ps=6.78e-06 pd=5.75e-06 
+ nrs=0.33 nrd=0.42 
m263 90 42 70 0 nenh l=8e-07 w=3.2e-06 