voter.sp SPICE FILE
.model nenh nmos
+ level = 2
+   vto = 0.6
+
+
+   pb = 0.7   cgso = 1.5e-10   cgdo = 1.5e-10
+   rsh = 28   cj = 0.000175
+   mj = 0.65   cjsw = 4e-10   mjsw = 0.3
+   tox = 3.5e-08   nsub = 7e+15
+
+   xj = 2e-07   ld = 2.5e-07   uo = 700
+   ucrit = 70000   uexp = 0.13
+   vmax = 50000   neff = 3
+
+   delta = 1.5
.model penh pmos
+ level = 2
+   vto = -0.6
+
+
+   pb = 0.7   cgso = 1.3e-10   cgdo = 1.3e-10
+   rsh = 92   cj = 0.000225
+   mj = 0.5   cjsw = 3e-10   mjsw = 0.3
+   tox = 3.5e-08   nsub = 5e+15
+
+   xj = 1e-07   ld = 2.5e-07   uo = 270
+   ucrit = 90000   uexp = 0.35
+   vmax = 30000   neff = 1.5
+
+   delta = 1
m1 3 5 4 3 penh l=2e-06 w=9.7e-05 

m2 4 5 3 3 penh l=2e-06 w=9.5e-05 

m3 3 5 4 3 penh l=2e-06 w=9.5e-05 

m4 4 5 3 3 penh l=2e-06 w=9.6e-05 

m5 3 5 4 3 penh l=2e-06 w=9.6e-05 

m6 4 5 3 3 penh l=2e-06 w=9.5e-05 

m7 3 5 4 3 penh l=2e-06 w=9.5e-05 

m8 4 5 3 3 penh l=2e-06 w=9.6e-05 

m9 3 6 5 3 penh l=2e-06 w=5.3e-05 

m10 5 6 3 3 penh l=2e-06 w=5.3e-05 

m11 3 7 6 3 penh l=2e-06 w=4.9e-05 

m12 7 8 3 3 penh l=2e-06 w=2.3e-05 

m13 3 6 5 3 penh l=2e-06 w=4.8e-05 

m14 5 6 3 3 penh l=2e-06 w=4.8e-05 

m15 3 8 9 3 penh l=2e-06 w=2.2e-05 

m16 10 11 3 3 penh l=2e-06 w=5e-05 

m17 3 9 11 3 penh l=2e-06 w=4.7e-05 

m18 10 11 3 3 penh l=2e-06 w=4.8e-05 

m19 3 11 10 3 penh l=2e-06 w=4.8e-05 

m20 0 10 4 0 nenh l=2e-06 w=4.6e-05 

m21 4 10 0 0 nenh l=2e-06 w=4.8e-05 

m22 0 10 4 0 nenh l=2e-06 w=4.6e-05 

m23 4 10 0 0 nenh l=2e-06 w=4.8e-05 

m24 0 10 4 0 nenh l=2e-06 w=4.8e-05 

m25 4 10 0 0 nenh l=2e-06 w=4.8e-05 

m26 0 10 4 0 nenh l=2e-06 w=4.8e-05 

m27 4 10 0 0 nenh l=2e-06 w=4.6e-05 

m28 0 11 10 0 nenh l=2e-06 w=6e-05 

m29 10 11 0 0 nenh l=2e-06 w=6e-05 

m30 11 9 0 0 nenh l=2e-06 w=5e-05 

m31 0 6 5 0 nenh l=2e-06 w=3.5e-05 

m32 5 6 0 0 nenh l=2e-06 w=3.4e-05 

m33 0 8 9 0 nenh l=2e-06 w=2.4e-05 

m34 0 6 5 0 nenh l=2e-06 w=2.5e-05 

m35 5 6 0 0 nenh l=2e-06 w=2.5e-05 

m36 0 7 6 0 nenh l=2e-06 w=1.6e-05 

m37 7 8 0 0 nenh l=2e-06 w=2.3e-05 

m38 3 13 12 3 penh l=2e-06 w=9.7e-05 

m39 12 13 3 3 penh l=2e-06 w=9.5e-05 

m40 3 13 12 3 penh l=2e-06 w=9.5e-05 

m41 12 13 3 3 penh l=2e-06 w=9.6e-05 

m42 3 13 12 3 penh l=2e-06 w=9.6e-05 

m43 12 13 3 3 penh l=2e-06 w=9.5e-05 

m44 3 13 12 3 penh l=2e-06 w=9.5e-05 

m45 12 13 3 3 penh l=2e-06 w=9.6e-05 

m46 3 14 13 3 penh l=2e-06 w=5.3e-05 

m47 13 14 3 3 penh l=2e-06 w=5.3e-05 

m48 3 15 14 3 penh l=2e-06 w=4.9e-05 

m49 15 16 3 3 penh l=2e-06 w=2.3e-05 

m50 3 14 13 3 penh l=2e-06 w=4.8e-05 

m51 13 14 3 3 penh l=2e-06 w=4.8e-05 

m52 3 16 17 3 penh l=2e-06 w=2.2e-05 

m53 18 19 3 3 penh l=2e-06 w=5e-05 

m54 3 17 19 3 penh l=2e-06 w=4.7e-05 

m55 18 19 3 3 penh l=2e-06 w=4.8e-05 

m56 3 19 18 3 penh l=2e-06 w=4.8e-05 

m57 0 18 12 0 nenh l=2e-06 w=4.6e-05 

m58 12 18 0 0 nenh l=2e-06 w=4.8e-05 

m59 0 18 12 0 nenh l=2e-06 w=4.6e-05 

m60 12 18 0 0 nenh l=2e-06 w=4.8e-05 

m61 0 18 12 0 nenh l=2e-06 w=4.8e-05 

m62 12 18 0 0 nenh l=2e-06 w=4.8e-05 

m63 0 18 12 0 nenh l=2e-06 w=4.8e-05 

m64 12 18 0 0 nenh l=2e-06 w=4.6e-05 

m65 0 19 18 0 nenh l=2e-06 w=6e-05 

m66 18 19 0 0 nenh l=2e-06 w=6e-05 

m67 19 17 0 0 nenh l=2e-06 w=5e-05 

m68 0 14 13 0 nenh l=2e-06 w=3.5e-05 

m69 13 14 0 0 nenh l=2e-06 w=3.4e-05 

m70 0 16 17 0 nenh l=2e-06 w=2.4e-05 

m71 0 14 13 0 nenh l=2e-06 w=2.5e-05 

m72 13 14 0 0 nenh l=2e-06 w=2.5e-05 

m73 0 15 14 0 nenh l=2e-06 w=1.6e-05 

m74 15 16 0 0 nenh l=2e-06 w=2.3e-05 

m75 3 21 20 3 penh l=2e-06 w=9.7e-05 

m76 20 21 3 3 penh l=2e-06 w=9.5e-05 

m77 3 21 20 3 penh l=2e-06 w=9.5e-05 

m78 20 21 3 3 penh l=2e-06 w=9.6e-05 

m79 3 21 20 3 penh l=2e-06 w=9.6e-05 

m80 20 21 3 3 penh l=2e-06 w=9.5e-05 

m81 3 21 20 3 penh l=2e-06 w=9.5e-05 

m82 20 21 3 3 penh l=2e-06 w=9.6e-05 

m83 3 22 21 3 penh l=2e-06 w=5.3e-05 

m84 21 22 3 3 penh l=2e-06 w=5.3e-05 

m85 3 23 22 3 penh l=2e-06 w=4.9e-05 

m86 23 24 3 3 penh l=2e-06 w=2.3e-05 

m87 3 22 21 3 penh l=2e-06 w=4.8e-05 

m88 21 22 3 3 penh l=2e-06 w=4.8e-05 

m89 3 24 25 3 penh l=2e-06 w=2.2e-05 

m90 26 27 3 3 penh l=2e-06 w=5e-05 

m91 3 25 27 3 penh l=2e-06 w=4.7e-05 

m92 26 27 3 3 penh l=2e-06 w=4.8e-05 

m93 3 27 26 3 penh l=2e-06 w=4.8e-05 

m94 0 26 20 0 nenh l=2e-06 w=4.6e-05 

m95 20 26 0 0 nenh l=2e-06 w=4.8e-05 

m96 0 26 20 0 nenh l=2e-06 w=4.6e-05 

m97 20 26 0 0 nenh l=2e-06 w=4.8e-05 

m98 0 26 20 0 nenh l=2e-06 w=4.8e-05 

m99 20 26 0 0 nenh l=2e-06 w=4.8e-05 

m100 0 26 20 0 nenh l=2e-06 w=4.8e-05 

m101 20 26 0 0 nenh l=2e-06 w=4.6e-05 

m102 0 27 26 0 nenh l=2e-06 w=6e-05 

m103 26 27 0 0 nenh l=2e-06 w=6e-05 

m104 27 25 0 0 nenh l=2e-06 w=5e-05 

m105 0 22 21 0 nenh l=2e-06 w=3.5e-05 

m106 21 22 0 0 nenh l=2e-06 w=3.4e-05 

m107 0 24 25 0 nenh l=2e-06 w=2.4e-05 

m108 0 22 21 0 nenh l=2e-06 w=2.5e-05 

m109 21 22 0 0 nenh l=2e-06 w=2.5e-05 

m110 0 23 22 0 nenh l=2e-06 w=1.6e-05 

m111 23 24 0 0 nenh l=2e-06 w=2.3e-05 

m112 28 29 3 3 penh l=2e-06 w=6.2e-05 

m113 3 30 29 3 penh l=2e-06 w=6.2e-05 

m114 30 31 3 3 penh l=2e-06 w=2.9e-05 

m115 3 32 31 3 penh l=4e-06 w=2.9e-05 

m116 30 31 0 0 nenh l=2e-06 w=2.1e-05 

m117 0 32 31 0 nenh l=4e-06 w=2.1e-05 

m118 28 29 0 0 nenh l=2e-06 w=4.8e-05 

m119 0 30 29 0 nenh l=2e-06 w=4.8e-05 

m120 32 0 0 0 nenh l=4e-06 w=2.5e-05 

m121 33 34 3 3 penh l=2e-06 w=6.2e-05 

m122 3 35 34 3 penh l=2e-06 w=6.2e-05 

m123 35 36 3 3 penh l=2e-06 w=2.9e-05 

m124 3 37 36 3 penh l=4e-06 w=2.9e-05 

m125 35 36 0 0 nenh l=2e-06 w=2.1e-05 

m126 0 37 36 0 nenh l=4e-06 w=2.1e-05 

m127 33 34 0 0 nenh l=2e-06 w=4.8e-05 

m128 0 35 34 0 nenh l=2e-06 w=4.8e-05 

m129 37 0 0 0 nenh l=4e-06 w=2.5e-05 

m130 38 39 3 3 penh l=2e-06 w=6.2e-05 

m131 3 40 39 3 penh l=2e-06 w=6.2e-05 

m132 40 41 3 3 penh l=2e-06 w=2.9e-05 

m133 3 42 41 3 penh l=4e-06 w=2.9e-05 

m134 40 41 0 0 nenh l=2e-06 w=2.1e-05 

m135 0 42 41 0 nenh l=4e-06 w=2.1e-05 

m136 38 39 0 0 nenh l=2e-06 w=4.8e-05 

m137 0 40 39 0 nenh l=2e-06 w=4.8e-05 

m138 42 0 0 0 nenh l=4e-06 w=2.5e-05 

m139 43 44 3 3 penh l=2e-06 w=6.2e-05 

m140 3 45 44 3 penh l=2e-06 w=6.2e-05 

m141 45 46 3 3 penh l=2e-06 w=2.9e-05 

m142 3 47 46 3 penh l=4e-06 w=2.9e-05 

m143 45 46 0 0 nenh l=2e-06 w=2.1e-05 

m144 0 47 46 0 nenh l=4e-06 w=2.1e-05 

m145 43 44 0 0 nenh l=2e-06 w=4.8e-05 

m146 0 45 44 0 nenh l=2e-06 w=4.8e-05 

m147 47 0 0 0 nenh l=4e-06 w=2.5e-05 

m148 48 49 3 3 penh l=2e-06 w=6.2e-05 

m149 3 50 49 3 penh l=2e-06 w=6.2e-05 

m150 50 51 3 3 penh l=2e-06 w=2.9e-05 

m151 3 52 51 3 penh l=4e-06 w=2.9e-05 

m152 50 51 0 0 nenh l=2e-06 w=2.1e-05 

m153 0 52 51 0 nenh l=4e-06 w=2.1e-05 

m154 48 49 0 0 nenh l=2e-06 w=4.8e-05 

m155 0 50 49 0 nenh l=2e-06 w=4.8e-05 

m156 52 0 0 0 nenh l=4e-06 w=2.5e-05 

m157 53 54 3 3 penh l=2e-06 w=6.2e-05 

m158 3 55 54 3 penh l=2e-06 w=6.2e-05 

m159 55 56 3 3 penh l=2e-06 w=2.9e-05 

m160 3 57 56 3 penh l=4e-06 w=2.9e-05 

m161 55 56 0 0 nenh l=2e-06 w=2.1e-05 

m162 0 57 56 0 nenh l=4e-06 w=2.1e-05 

m163 53 54 0 0 nenh l=2e-06 w=4.8e-05 

m164 0 55 54 0 nenh l=2e-06 w=4.8e-05 

m165 57 0 0 0 nenh l=4e-06 w=2.5e-05 

m166 3 59 58 3 penh l=2e-06 w=9.7e-05 

m167 58 59 3 3 penh l=2e-06 w=9.5e-05 

m168 3 59 58 3 penh l=2e-06 w=9.5e-05 

m169 58 59 3 3 penh l=2e-06 w=9.6e-05 

m170 3 59 58 3 penh l=2e-06 w=9.6e-05 

m171 58 59 3 3 penh l=2e-06 w=9.5e-05 

m172 3 59 58 3 penh l=2e-06 w=9.5e-05 

m173 58 59 3 3 penh l=2e-06 w=9.6e-05 

m174 3 60 59 3 penh l=2e-06 w=5.3e-05 

m175 59 60 3 3 penh l=2e-06 w=5.3e-05 

m176 3 61 60 3 penh l=2e-06 w=4.9e-05 

m177 61 62 3 3 penh l=2e-06 w=2.3e-05 

m178 3 60 59 3 penh l=2e-06 w=4.8e-05 

m179 59 60 3 3 penh l=2e-06 w=4.8e-05 

m180 3 62 63 3 penh l=2e-06 w=2.2e-05 

m181 64 65 3 3 penh l=2e-06 w=5e-05 

m182 3 63 65 3 penh l=2e-06 w=4.7e-05 

m183 64 65 3 3 penh l=2e-06 w=4.8e-05 

m184 3 65 64 3 penh l=2e-06 w=4.8e-05 

m185 0 64 58 0 nenh l=2e-06 w=4.6e-05 

m186 58 64 0 0 nenh l=2e-06 w=4.8e-05 

m187 0 64 58 0 nenh l=2e-06 w=4.6e-05 

m188 58 64 0 0 nenh l=2e-06 w=4.8e-05 

m189 0 64 58 0 nenh l=2e-06 w=4.8e-05 

m190 58 64 0 0 nenh l=2e-06 w=4.8e-05 

m191 0 64 58 0 nenh l=2e-06 w=4.8e-05 

m192 58 64 0 0 nenh l=2e-06 w=4.6e-05 

m193 0 65 64 0 nenh l=2e-06 w=6e-05 

m194 64 65 0 0 nenh l=2e-06 w=6e-05 

m195 65 63 0 0 nenh l=2e-06 w=5e-05 

m196 0 60 59 0 nenh l=2e-06 w=3.5e-05 

m197 59 60 0 0 nenh l=2e-06 w=3.4e-05 

m198 0 62 63 0 nenh l=2e-06 w=2.4e-05 

m199 0 60 59 0 nenh l=2e-06 w=2.5e-05 

m200 59 60 0 0 nenh l=2e-06 w=2.5e-05 

m201 0 61 60 0 nenh l=2e-06 w=1.6e-05 

m202 61 62 0 0 nenh l=2e-06 w=2.3e-05 

m203 3 67 66 3 penh l=2e-06 w=9.7e-05 

m204 66 67 3 3 penh l=2e-06 w=9.5e-05 

m205 3 67 66 3 penh l=2e-06 w=9.5e-05 

m206 66 67 3 3 penh l=2e-06 w=9.6e-05 

m207 3 67 66 3 penh l=2e-06 w=9.6e-05 

m208 66 67 3 3 penh l=2e-06 w=9.5e-05 

m209 3 67 66 3 penh l=2e-06 w=9.5e-05 

m210 66 67 3 3 penh l=2e-06 w=9.6e-05 

m211 3 68 67 3 penh l=2e-06 w=5.3e-05 

m212 67 68 3 3 penh l=2e-06 w=5.3e-05 

m213 3 69 68 3 penh l=2e-06 w=4.9e-05 

m214 69 70 3 3 penh l=2e-06 w=2.3e-05 

m215 3 68 67 3 penh l=2e-06 w=4.8e-05 

m216 67 68 3 3 penh l=2e-06 w=4.8e-05 

m217 3 70 71 3 penh l=2e-06 w=2.2e-05 

m218 72 73 3 3 penh l=2e-06 w=5e-05 

m219 3 71 73 3 penh l=2e-06 w=4.7e-05 

m220 72 73 3 3 penh l=2e-06 w=4.8e-05 

m221 3 73 72 3 penh l=2e-06 w=4.8e-05 

m222 0 72 66 0 nenh l=2e-06 w=4.6e-05 

m223 66 72 0 0 nenh l=2e-06 w=4.8e-05 

m224 0 72 66 0 nenh l=2e-06 w=4.6e-05 

m225 66 72 0 0 nenh l=2e-06 w=4.8e-05 

m226 0 72 66 0 nenh l=2e-06 w=4.8e-05 

m227 66 72 0 0 nenh l=2e-06 w=4.8e-05 

m228 0 72 66 0 nenh l=2e-06 w=4.8e-05 

m229 66 72 0 0 nenh l=2e-06 w=4.6e-05 

m230 0 73 72 0 nenh l=2e-06 w=6e-05 

m231 72 73 0 0 nenh l=2e-06 w=6e-05 

m232 73 71 0 0 nenh l=2e-06 w=5e-05 

m233 0 68 67 0 nenh l=2e-06 w=3.5e-05 

m234 67 68 0 0 nenh l=2e-06 w=3.4e-05 

m235 0 70 71 0 nenh l=2e-06 w=2.4e-05 

m236 0 68 67 0 nenh l=2e-06 w=2.5e-05 

m237 67 68 0 0 nenh l=2e-06 w=2.5e-05 

m238 0 69 68 0 nenh l=2e-06 w=1.6e-05 

m239 69 70 0 0 nenh l=2e-06 w=2.3e-05 

m240 0 34 74 0 nenh l=2e-06 w=2.9e-05 

m241 74 34 0 0 nenh l=2e-06 w=1.7e-05 

m242 0 34 74 0 nenh l=2e-06 w=2.9e-05 

m243 74 34 0 0 nenh l=2e-06 w=1.7e-05 

m244 0 34 74 0 nenh l=2e-06 w=1.2e-05 

m245 0 34 74 0 nenh l=2e-06 w=1.2e-05 

m246 74 34 3 3 penh l=2e-06 w=2.2e-05 

m247 3 34 74 3 penh l=2e-06 w=3.4e-05 

m248 74 34 3 3 penh l=2e-06 w=2.3e-05 

m249 74 34 3 3 penh l=2e-06 w=2.2e-05 

m250 3 34 74 3 penh l=2e-06 w=3.4e-05 

m251 74 34 3 3 penh l=2e-06 w=2.3e-05 

m252 74 34 3 3 penh l=2e-06 w=2.7e-05 

m253 74 34 3 3 penh l=2e-06 w=2.7e-05 

m254 75 77 76 3 penh l=2e-06 w=6e-06 

m255 76 79 78 3 penh l=2e-06 w=6e-06 

m256 76 81 80 3 penh l=2e-06 w=6e-06 

m257 80 83 82 3 penh l=2e-06 w=6e-06 

m258 82 84 3 3 penh l=2e-06 w=6e-06 

m259 3 80 84 3 penh l=2e-06 w=6e-06 

m260 84 74 3 3 penh l=2e-06 w=6e-06 

m261 3 84 78 3 penh l=2e-06 w=6e-06 

m262 3 78 85 3 penh l=2e-06 w=2.4e-05 

m263 75 79 76 0 nenh l=2e-06 w=4e-06 

m264 76 77 78 0 nenh l=2e-06 w=4e-06 

m265 3 85 86 3 penh l=2e-06 w=2.8e-05 

m266 86 85 3 3 penh l=2e-06 w=3e-05 

m267 86 85 3 3 penh l=2e-06 w=1.8e-05 

m268 76 83 80 0 nenh l=2e-06 w=4e-06 

m269 80 81 87 0 nenh l=2e-06 w=4e-06 

m270 87 84 0 0 nenh l=2e-06 w=4e-06 

m271 0 80 88 0 nenh l=2e-06 w=8e-06 

m272 88 74 84 0 nenh l=2e-06 w=8e-06 

m273 3 85 86 3 penh l=2e-06 w=1.8e-05 

m274 78 84 0 0 nenh l=2e-06 w=4e-06 

m275 0 78 85 0 nenh l=2e-06 w=1.6e-05 

m276 86 85 0 0 nenh l=2e-06 w=1.4e-05 

m277 0 85 86 0 nenh l=2e-06 w=3.1e-05 

m278 86 85 0 0 nenh l=2e-06 w=1.9e-05 

m279 0 90 89 0 nenh l=2e-06 w=1.6e-05 

m280 0 89 91 0 nenh l=2e-06 w=3.1e-05 

m281 92 79 93 0 nenh l=2e-06 w=4e-06 

m282 93 77 90 0 nenh l=2e-06 w=4e-06 

m283 93 83 94 0 nenh l=2e-06 w=4e-06 

m284 94 81 95 0 nenh l=2e-06 w=4e-06 

m285 95 96 0 0 nenh l=2e-06 w=4e-06 

m286 0 94 97 0 nenh l=2e-06 w=8e-06 

m287 97 74 96 0 nenh l=2e-06 w=8e-06 

m288 90 96 0 0 nenh l=2e-06 w=4e-06 

m289 0 89 91 0 nenh l=2e-06 w=1.4e-05 

m290 91 89 0 0 nenh l=2e-06 w=1.9e-05 

m291 92 77 93 3 penh l=2e-06 w=6e-06 

m292 93 79 90 3 penh l=2e-06 w=6e-06 

m293 93 81 94 3 penh l=2e-06 w=6e-06 

m294 94 83 98 3 penh l=2e-06 w=6e-06 

m295 98 96 3 3 penh l=2e-06 w=6e-06 

m296 3 94 96 3 penh l=2e-06 w=6e-06 

m297 96 74 3 3 penh l=2e-06 w=6e-06 

m298 3 96 90 3 penh l=2e-06 w=6e-06 

m299 3 90 89 3 penh l=2e-06 w=2.4e-05 

m300 3 89 91 3 penh l=2e-06 w=1.8e-05 

m301 91 89 3 3 penh l=2e-06 w=3e-05 

m302 3 89 91 3 penh l=2e-06 w=1.8e-05 

m303 91 89 3 3 penh l=2e-06 w=2.8e-05 

m304 99 77 100 3 penh l=2e-06 w=6e-06 

m305 100 79 101 3 penh l=2e-06 w=6e-06 

m306 100 81 102 3 penh l=2e-06 w=6e-06 

m307 102 83 103 3 penh l=2e-06 w=6e-06 

m308 103 104 3 3 penh l=2e-06 w=6e-06 

m309 3 102 104 3 penh l=2e-06 w=6e-06 

m310 104 74 3 3 penh l=2e-06 w=6e-06 

m311 3 104 101 3 penh l=2e-06 w=6e-06 

m312 3 101 105 3 penh l=2e-06 w=2.4e-05 

m313 99 79 100 0 nenh l=2e-06 w=4e-06 

m314 100 77 101 0 nenh l=2e-06 w=4e-06 

m315 3 105 106 3 penh l=2e-06 w=2.8e-05 

m316 106 105 3 3 penh l=2e-06 w=3e-05 

m317 106 105 3 3 penh l=2e-06 w=1.8e-05 

m318 100 83 102 0 nenh l=2e-06 w=4e-06 

m319 102 81 107 0 nenh l=2e-06 w=4e-06 

m320 107 104 0 0 nenh l=2e-06 w=4e-06 

m321 0 102 108 0 nenh l=2e-06 w=8e-06 

m322 108 74 104 0 nenh l=2e-06 w=8e-06 

m323 3 105 106 3 penh l=2e-06 w=1.8e-05 

m324 101 104 0 0 nenh l=2e-06 w=4e-06 

m325 0 101 105 0 nenh l=2e-06 w=1.6e-05 

m326 106 105 0 0 nenh l=2e-06 w=1.4e-05 

m327 0 105 106 0 nenh l=2e-06 w=3.1e-05 

m328 106 105 0 0 nenh l=2e-06 w=1.9e-05 

m329 0 110 109 0 nenh l=2e-06 w=1.6e-05 

m330 0 109 111 0 nenh l=2e-06 w=3.1e-05 

m331 112 79 113 0 nenh l=2e-06 w=4e-06 

m332 113 77 110 0 nenh l=2e-06 w=4e-06 

m333 113 83 114 0 nenh l=2e-06 w=4e-06 

m334 114 81 115 0 nenh l=2e-06 w=4e-06 

m335 115 116 0 0 nenh l=2e-06 w=4e-06 

m336 0 114 117 0 nenh l=2e-06 w=8e-06 

m337 117 74 116 0 nenh l=2e-06 w=8e-06 

m338 110 116 0 0 nenh l=2e-06 w=4e-06 

m339 0 109 111 0 nenh l=2e-06 w=1.4e-05 

m340 111 109 0 0 nenh l=2e-06 w=1.9e-05 

m341 112 77 113 3 penh l=2e-06 w=6e-06 

m342 113 79 110 3 penh l=2e-06 w=6e-06 

m343 113 81 114 3 penh l=2e-06 w=6e-06 

m344 114 83 118 3 penh l=2e-06 w=6e-06 

m345 118 116 3 3 penh l=2e-06 w=6e-06 

m346 3 114 116 3 penh l=2e-06 w=6e-06 

m347 116 74 3 3 penh l=2e-06 w=6e-06 

m348 3 116 110 3 penh l=2e-06 w=6e-06 

m349 3 110 109 3 penh l=2e-06 w=2.4e-05 

m350 3 109 111 3 penh l=2e-06 w=1.8e-05 

m351 111 109 3 3 penh l=2e-06 w=3e-05 

m352 3 109 111 3 penh l=2e-06 w=1.8e-05 

m353 111 109 3 3 penh l=2e-06 w=2.8e-05 

m354 119 77 120 3 penh l=2e-06 w=6e-06 

m355 120 79 121 3 penh l=2e-06 w=6e-06 

m356 120 81 122 3 penh l=2e-06 w=6e-06 

m357 122 83 123 3 penh l=2e-06 w=6e-06 

m358 123 124 3 3 penh l=2e-06 w=6e-06 

m359 3 122 124 3 penh l=2e-06 w=6e-06 

m360 124 74 3 3 penh l=2e-06 w=6e-06 

m361 3 124 121 3 penh l=2e-06 w=6e-06 

m362 3 121 125 3 penh l=2e-06 w=2.4e-05 

m363 119 79 120 0 nenh l=2e-06 w=4e-06 

m364 120 77 121 0 nenh l=2e-06 w=4e-06 

m365 3 125 126 3 penh l=2e-06 w=2.8e-05 

m366 126 125 3 3 penh l=2e-06 w=3e-05 

m367 126 125 3 3 penh l=2e-06 w=1.8e-05 

m368 120 83 122 0 nenh l=2e-06 w=4e-06 

m369 122 81 127 0 nenh l=2e-06 w=4e-06 

m370 127 124 0 0 nenh l=2e-06 w=4e-06 

m371 0 122 128 0 nenh l=2e-06 w=8e-06 

m372 128 74 124 0 nenh l=2e-06 w=8e-06 

m373 3 125 126 3 penh l=2e-06 w=1.8e-05 

m374 121 124 0 0 nenh l=2e-06 w=4e-06 

m375 0 121 125 0 nenh l=2e-06 w=1.6e-05 

m376 126 125 0 0 nenh l=2e-06 w=1.4e-05 

m377 0 125 126 0 nenh l=2e-06 w=3.1e-05 

m378 126 125 0 0 nenh l=2e-06 w=1.9e-05 

m379 0 130 129 0 nenh l=2e-06 w=1.6e-05 

m380 0 129 131 0 nenh l=2e-06 w=3.1e-05 

m381 132 79 133 0 nenh l=2e-06 w=4e-06 

m382 133 77 130 0 nenh l=2e-06 w=4e-06 

m383 133 83 134 0 nenh l=2e-06 w=4e-06 

m384 134 81 135 0 nenh l=2e-06 w=4e-06 

m385 135 136 0 0 nenh l=2e-06 w=4e-06 

m386 0 134 137 0 nenh l=2e-06 w=8e-06 

m387 137 74 136 0 nenh l=2e-06 w=8e-06 

m388 130 136 0 0 nenh l=2e-06 w=4e-06 

m389 0 129 131 0 nenh l=2e-06 w=1.4e-05 

m390 131 129 0 0 nenh l=2e-06 w=1.9e-05 

m391 132 77 133 3 penh l=2e-06 w=6e-06 

m392 133 79 130 3 penh l=2e-06 w=6e-06 

m393 133 81 134 3 penh l=2e-06 w=6e-06 

m394 134 83 138 3 penh l=2e-06 w=6e-06 

m395 138 136 3 3 penh l=2e-06 w=6e-06 

m396 3 134 136 3 penh l=2e-06 w=6e-06 

m397 136 74 3 3 penh l=2e-06 w=6e-06 

m398 3 136 130 3 penh l=2e-06 w=6e-06 

m399 3 130 129 3 penh l=2e-06 w=2.4e-05 

m400 3 129 131 3 penh l=2e-06 w=1.8e-05 

m401 131 129 3 3 penh l=2e-06 w=3e-05 

m402 3 129 131 3 penh l=2e-06 w=1.8e-05 

m403 131 129 3 3 penh l=2e-06 w=2.8e-05 

m404 139 77 140 3 penh l=2e-06 w=6e-06 

m405 140 79 141 3 penh l=2e-06 w=6e-06 

m406 140 81 142 3 penh l=2e-06 w=6e-06 

m407 142 83 143 3 penh l=2e-06 w=6e-06 

m408 143 144 3 3 penh l=2e-06 w=6e-06 

m409 3 142 144 3 penh l=2e-06 w=6e-06 

m410 144 74 3 3 penh l=2e-06 w=6e-06 

m411 3 144 141 3 penh l=2e-06 w=6e-06 

m412 3 141 145 3 penh l=2e-06 w=2.4e-05 

m413 139 79 140 0 nenh l=2e-06 w=4e-06 

m414 140 77 141 0 nenh l=2e-06 w=4e-06 

m415 3 145 146 3 penh l=2e-06 w=2.8e-05 

m416 146 145 3 3 penh l=2e-06 w=3e-05 

m417 146 145 3 3 penh l=2e-06 w=1.8e-05 

m418 140 83 142 0 nenh l=2e-06 w=4e-06 

m419 142 81 147 0 nenh l=2e-06 w=4e-06 

m420 147 144 0 0 nenh l=2e-06 w=4e-06 

m421 0 142 148 0 nenh l=2e-06 w=8e-06 

m422 148 74 144 0 nenh l=2e-06 w=8e-06 

m423 3 145 146 3 penh l=2e-06 w=1.8e-05 

m424 141 144 0 0 nenh l=2e-06 w=4e-06 

m425 0 141 145 0 nenh l=2e-06 w=1.6e-05 

m426 146 145 0 0 nenh l=2e-06 w=1.4e-05 

m427 0 145 146 0 nenh l=2e-06 w=3.1e-05 

m428 146 145 0 0 nenh l=2e-06 w=1.9e-05 

m429 0 150 149 0 nenh l=2e-06 w=1.6e-05 

m430 0 149 151 0 nenh l=2e-06 w=3.1e-05 

m431 152 79 153 0 nenh l=2e-06 w=4e-06 

m432 153 77 150 0 nenh l=2e-06 w=4e-06 

m433 153 83 154 0 nenh l=2e-06 w=4e-06 

m434 154 81 155 0 nenh l=2e-06 w=4e-06 

m435 155 156 0 0 nenh l=2e-06 w=4e-06 

m436 0 154 157 0 nenh l=2e-06 w=8e-06 

m437 157 74 156 0 nenh l=2e-06 w=8e-06 

m438 150 156 0 0 nenh l=2e-06 w=4e-06 

m439 0 149 151 0 nenh l=2e-06 w=1.4e-05 

m440 151 149 0 0 nenh l=2e-06 w=1.9e-05 

m441 152 77 153 3 penh l=2e-06 w=6e-06 

m442 153 79 150 3 penh l=2e-06 w=6e-06 

m443 153 81 154 3 penh l=2e-06 w=6e-06 

m444 154 83 158 3 penh l=2e-06 w=6e-06 

m445 158 156 3 3 penh l=2e-06 w=6e-06 

m446 3 154 156 3 penh l=2e-06 w=6e-06 

m447 156 74 3 3 penh l=2e-06 w=6e-06 

m448 3 156 150 3 penh l=2e-06 w=6e-06 

m449 3 150 149 3 penh l=2e-06 w=2.4e-05 

m450 3 149 151 3 penh l=2e-06 w=1.8e-05 

m451 151 149 3 3 penh l=2e-06 w=3e-05 

m452 3 149 151 3 penh l=2e-06 w=1.8e-05 

m453 151 149 3 3 penh l=2e-06 w=2.8e-05 

m454 159 77 160 3 penh l=2e-06 w=6e-06 

m455 160 79 161 3 penh l=2e-06 w=6e-06 

m456 160 81 162 3 penh l=2e-06 w=6e-06 

m457 162 83 163 3 penh l=2e-06 w=6e-06 

m458 163 164 3 3 penh l=2e-06 w=6e-06 

m459 3 162 164 3 penh l=2e-06 w=6e-06 

m460 164 74 3 3 penh l=2e-06 w=6e-06 

m461 3 164 161 3 penh l=2e-06 w=6e-06 

m462 3 161 165 3 penh l=2e-06 w=2.4e-05 

m463 159 79 160 0 nenh l=2e-06 w=4e-06 

m464 160 77 161 0 nenh l=2e-06 w=4e-06 

m465 3 165 166 3 penh l=2e-06 w=2.8e-05 

m466 166 165 3 3 penh l=2e-06 w=3e-05 

m467 166 165 3 3 penh l=2e-06 w=1.8e-05 

m468 160 83 162 0 nenh l=2e-06 w=4e-06 

m469 162 81 167 0 nenh l=2e-06 w=4e-06 

m470 167 164 0 0 nenh l=2e-06 w=4e-06 

m471 0 162 168 0 nenh l=2e-06 w=8e-06 

m472 168 74 164 0 nenh l=2e-06 w=8e-06 

m473 3 165 166 3 penh l=2e-06 w=1.8e-05 

m474 161 164 0 0 nenh l=2e-06 w=4e-06 

m475 0 161 165 0 nenh l=2e-06 w=1.6e-05 

m476 166 165 0 0 nenh l=2e-06 w=1.4e-05 

m477 0 165 166 0 nenh l=2e-06 w=3.1e-05 

m478 166 165 0 0 nenh l=2e-06 w=1.9e-05 

m479 0 170 169 0 nenh l=2e-06 w=1.6e-05 

m480 0 169 171 0 nenh l=2e-06 w=3.1e-05 

m481 53 79 172 0 nenh l=2e-06 w=4e-06 

m482 172 77 170 0 nenh l=2e-06 w=4e-06 

m483 172 83 173 0 nenh l=2e-06 w=4e-06 

m484 173 81 174 0 nenh l=2e-06 w=4e-06 

m485 174 175 0 0 nenh l=2e-06 w=4e-06 

m486 0 173 176 0 nenh l=2e-06 w=8e-06 

m487 176 74 175 0 nenh l=2e-06 w=8e-06 

m488 170 175 0 0 nenh l=2e-06 w=4e-06 

m489 0 169 171 0 nenh l=2e-06 w=1.4e-05 

m490 171 169 0 0 nenh l=2e-06 w=1.9e-05 

m491 53 77 172 3 penh l=2e-06 w=6e-06 

m492 172 79 170 3 penh l=2e-06 w=6e-06 

m493 172 81 173 3 penh l=2e-06 w=6e-06 

m494 173 83 177 3 penh l=2e-06 w=6e-06 

m495 177 175 3 3 penh l=2e-06 w=6e-06 

m496 3 173 175 3 penh l=2e-06 w=6e-06 

m497 175 74 3 3 penh l=2e-06 w=6e-06 

m498 3 175 170 3 penh l=2e-06 w=6e-06 

m499 3 170 169 3 penh l=2e-06 w=2.4e-05 

m500 3 169 171 3 penh l=2e-06 w=1.8e-05 

m501 171 169 3 3 penh l=2e-06 w=3e-05 

m502 3 169 171 3 penh l=2e-06 w=1.8e-05 

m503 171 169 3 3 penh l=2e-06 w=2.8e-05 

m504 178 77 179 3 penh l=2e-06 w=6e-06 

m505 179 79 180 3 penh l=2e-06 w=6e-06 

m506 179 81 181 3 penh l=2e-06 w=6e-06 

m507 181 83 182 3 penh l=2e-06 w=6e-06 

m508 182 183 3 3 penh l=2e-06 w=6e-06 

m509 3 181 183 3 penh l=2e-06 w=6e-06 

m510 183 74 3 3 penh l=2e-06 w=6e-06 

m511 3 183 180 3 penh l=2e-06 w=6e-06 

m512 3 180 184 3 penh l=2e-06 w=2.4e-05 

m513 178 79 179 0 nenh l=2e-06 w=4e-06 

m514 179 77 180 0 nenh l=2e-06 w=4e-06 

m515 3 184 185 3 penh l=2e-06 w=2.8e-05 

m516 185 184 3 3 penh l=2e-06 w=3e-05 

m517 185 184 3 3 penh l=2e-06 w=1.8e-05 

m518 179 83 181 0 nenh l=2e-06 w=4e-06 

m519 181 81 186 0 nenh l=2e-06 w=4e-06 

m520 186 183 0 0 nenh l=2e-06 w=4e-06 

m521 0 181 187 0 nenh l=2e-06 w=8e-06 

m522 187 74 183 0 nenh l=2e-06 w=8e-06 

m523 3 184 185 3 penh l=2e-06 w=1.8e-05 

m524 180 183 0 0 nenh l=2e-06 w=4e-06 

m525 0 180 184 0 nenh l=2e-06 w=1.6e-05 

m526 185 184 0 0 nenh l=2e-06 w=1.4e-05 

m527 0 184 185 0 nenh l=2e-06 w=3.1e-05 

m528 185 184 0 0 nenh l=2e-06 w=1.9e-05 

m529 0 189 188 0 nenh l=2e-06 w=1.6e-05 

m530 0 188 190 0 nenh l=2e-06 w=3.1e-05 

m531 48 79 191 0 nenh l=2e-06 w=4e-06 

m532 191 77 189 0 nenh l=2e-06 w=4e-06 

m533 191 83 192 0 nenh l=2e-06 w=4e-06 

m534 192 81 193 0 nenh l=2e-06 w=4e-06 

m535 193 194 0 0 nenh l=2e-06 w=4e-06 

m536 0 192 195 0 nenh l=2e-06 w=8e-06 

m537 195 74 194 0 nenh l=2e-06 w=8e-06 

m538 189 194 0 0 nenh l=2e-06 w=4e-06 

m539 0 188 190 0 nenh l=2e-06 w=1.4e-05 

m540 190 188 0 0 nenh l=2e-06 w=1.9e-05 

m541 48 77 191 3 penh l=2e-06 w=6e-06 

m542 191 79 189 3 penh l=2e-06 w=6e-06 

m543 191 81 192 3 penh l=2e-06 w=6e-06 

m544 192 83 196 3 penh l=2e-06 w=6e-06 

m545 196 194 3 3 penh l=2e-06 w=6e-06 

m546 3 192 194 3 penh l=2e-06 w=6e-06 

m547 194 74 3 3 penh l=2e-06 w=6e-06 

m548 3 194 189 3 penh l=2e-06 w=6e-06 

m549 3 189 188 3 penh l=2e-06 w=2.4e-05 

m550 3 188 190 3 penh l=2e-06 w=1.8e-05 

m551 190 188 3 3 penh l=2e-06 w=3e-05 

m552 3 188 190 3 penh l=2e-06 w=1.8e-05 

m553 190 188 3 3 penh l=2e-06 w=2.8e-05 

m554 197 77 198 3 penh l=2e-06 w=6e-06 

m555 198 79 199 3 penh l=2e-06 w=6e-06 

m556 198 81 200 3 penh l=2e-06 w=6e-06 

m557 200 83 201 3 penh l=2e-06 w=6e-06 

m558 201 202 3 3 penh l=2e-06 w=6e-06 

m559 3 200 202 3 penh l=2e-06 w=6e-06 

m560 202 74 3 3 penh l=2e-06 w=6e-06 

m561 3 202 199 3 penh l=2e-06 w=6e-06 

m562 3 199 203 3 penh l=2e-06 w=2.4e-05 

m563 197 79 198 0 nenh l=2e-06 w=4e-06 

m564 198 77 199 0 nenh l=2e-06 w=4e-06 

m565 3 203 204 3 penh l=2e-06 w=2.8e-05 

m566 204 203 3 3 penh l=2e-06 w=3e-05 

m567 204 203 3 3 penh l=2e-06 w=1.8e-05 

m568 198 83 200 0 nenh l=2e-06 w=4e-06 

m569 200 81 205 0 nenh l=2e-06 w=4e-06 

m570 205 202 0 0 nenh l=2e-06 w=4e-06 

m571 0 200 206 0 nenh l=2e-06 w=8e-06 

m572 206 74 202 0 nenh l=2e-06 w=8e-06 

m573 3 203 204 3 penh l=2e-06 w=1.8e-05 

m574 199 202 0 0 nenh l=2e-06 w=4e-06 

m575 0 199 203 0 nenh l=2e-06 w=1.6e-05 

m576 204 203 0 0 nenh l=2e-06 w=1.4e-05 

m577 0 203 204 0 nenh l=2e-06 w=3.1e-05 

m578 204 203 0 0 nenh l=2e-06 w=1.9e-05 

m579 0 208 207 0 nenh l=2e-06 w=1.6e-05 

m580 0 207 209 0 nenh l=2e-06 w=3.1e-05 

m581 43 79 210 0 nenh l=2e-06 w=4e-06 

m582 210 77 208 0 nenh l=2e-06 w=4e-06 

m583 210 83 211 0 nenh l=2e-06 w=4e-06 

m584 211 81 212 0 nenh l=2e-06 w=4e-06 

m585 212 213 0 0 nenh l=2e-06 w=4e-06 

m586 0 211 214 0 nenh l=2e-06 w=8e-06 

m587 214 74 213 0 nenh l=2e-06 w=8e-06 

m588 208 213 0 0 nenh l=2e-06 w=4e-06 

m589 0 207 209 0 nenh l=2e-06 w=1.4e-05 

m590 209 207 0 0 nenh l=2e-06 w=1.9e-05 

m591 43 77 210 3 penh l=2e-06 w=6e-06 

m592 210 79 208 3 penh l=2e-06 w=6e-06 

m593 210 81 211 3 penh l=2e-06 w=6e-06 

m594 211 83 215 3 penh l=2e-06 w=6e-06 

m595 215 213 3 3 penh l=2e-06 w=6e-06 

m596 3 211 213 3 penh l=2e-06 w=6e-06 

m597 213 74 3 3 penh l=2e-06 w=6e-06 

m598 3 213 208 3 penh l=2e-06 w=6e-06 

m599 3 208 207 3 penh l=2e-06 w=2.4e-05 

m600 3 207 209 3 penh l=2e-06 w=1.8e-05 

m601 209 207 3 3 penh l=2e-06 w=3e-05 

m602 3 207 209 3 penh l=2e-06 w=1.8e-05 

m603 209 207 3 3 penh l=2e-06 w=2.8e-05 

m604 216 77 217 3 penh l=2e-06 w=6e-06 

m605 217 79 218 3 penh l=2e-06 w=6e-06 

m606 217 81 219 3 penh l=2e-06 w=6e-06 

m607 219 83 220 3 penh l=2e-06 w=6e-06 

m608 220 221 3 3 penh l=2e-06 w=6e-06 

m609 3 219 221 3 penh l=2e-06 w=6e-06 

m610 221 74 3 3 penh l=2e-06 w=6e-06 

m611 3 221 218 3 penh l=2e-06 w=6e-06 

m612 3 218 222 3 penh l=2e-06 w=2.4e-05 

m613 216 79 217 0 nenh l=2e-06 w=4e-06 

m614 217 77 218 0 nenh l=2e-06 w=4e-06 

m615 3 222 223 3 penh l=2e-06 w=2.8e-05 

m616 223 222 3 3 penh l=2e-06 w=3e-05 

m617 223 222 3 3 penh l=2e-06 w=1.8e-05 

m618 217 83 219 0 nenh l=2e-06 w=4e-06 

m619 219 81 224 0 nenh l=2e-06 w=4e-06 

m620 224 221 0 0 nenh l=2e-06 w=4e-06 

m621 0 219 225 0 nenh l=2e-06 w=8e-06 

m622 225 74 221 0 nenh l=2e-06 w=8e-06 

m623 3 222 223 3 penh l=2e-06 w=1.8e-05 

m624 218 221 0 0 nenh l=2e-06 w=4e-06 

m625 0 218 222 0 nenh l=2e-06 w=1.6e-05 

m626 223 222 0 0 nenh l=2e-06 w=1.4e-05 

m627 0 222 223 0 nenh l=2e-06 w=3.1e-05 

m628 223 222 0 0 nenh l=2e-06 w=1.9e-05 

m629 0 227 226 0 nenh l=2e-06 w=1.6e-05 

m630 0 226 228 0 nenh l=2e-06 w=3.1e-05 

m631 38 79 229 0 nenh l=2e-06 w=4e-06 

m632 229 77 227 0 nenh l=2e-06 w=4e-06 

m633 229 83 230 0 nenh l=2e-06 w=4e-06 

m634 230 81 231 0 nenh l=2e-06 w=4e-06 

m635 231 232 0 0 nenh l=2e-06 w=4e-06 

m636 0 230 233 0 nenh l=2e-06 w=8e-06 

m637 233 74 232 0 nenh l=2e-06 w=8e-06 

m638 227 232 0 0 nenh l=2e-06 w=4e-06 

m639 0 226 228 0 nenh l=2e-06 w=1.4e-05 

m640 228 226 0 0 nenh l=2e-06 w=1.9e-05 

m641 38 77 229 3 penh l=2e-06 w=6e-06 

m642 229 79 227 3 penh l=2e-06 w=6e-06 

m643 229 81 230 3 penh l=2e-06 w=6e-06 

m644 230 83 234 3 penh l=2e-06 w=6e-06 

m645 234 232 3 3 penh l=2e-06 w=6e-06 

m646 3 230 232 3 penh l=2e-06 w=6e-06 

m647 232 74 3 3 penh l=2e-06 w=6e-06 

m648 3 232 227 3 penh l=2e-06 w=6e-06 

m649 3 227 226 3 penh l=2e-06 w=2.4e-05 

m650 3 226 228 3 penh l=2e-06 w=1.8e-05 

m651 228 226 3 3 penh l=2e-06 w=3e-05 

m652 3 226 228 3 penh l=2e-06 w=1.8e-05 

m653 228 226 3 3 penh l=2e-06 w=2.8e-05 

m654 152 235 3 3 penh l=2e-06 w=6.2e-05 

m655 3 236 235 3 penh l=2e-06 w=6.2e-05 

m656 236 237 3 3 penh l=2e-06 w=2.9e-05 

m657 3 238 237 3 penh l=4e-06 w=2.9e-05 

m658 236 237 0 0 nenh l=2e-06 w=2.1e-05 

m659 0 238 237 0 nenh l=4e-06 w=2.1e-05 

m660 152 235 0 0 nenh l=2e-06 w=4.8e-05 

m661 0 236 235 0 nenh l=2e-06 w=4.8e-05 

m662 238 0 0 0 nenh l=4e-06 w=2.5e-05 

m663 3 240 239 3 penh l=2e-06 w=9.7e-05 

m664 239 240 3 3 penh l=2e-06 w=9.5e-05 

m665 3 240 239 3 penh l=2e-06 w=9.5e-05 

m666 239 240 3 3 penh l=2e-06 w=9.6e-05 

m667 3 240 239 3 penh l=2e-06 w=9.6e-05 

m668 239 240 3 3 penh l=2e-06 w=9.5e-05 

m669 3 240 239 3 penh l=2e-06 w=9.5e-05 

m670 239 240 3 3 penh l=2e-06 w=9.6e-05 

m671 3 241 240 3 penh l=2e-06 w=5.3e-05 

m672 240 241 3 3 penh l=2e-06 w=5.3e-05 

m673 3 242 241 3 penh l=2e-06 w=4.9e-05 

m674 242 243 3 3 penh l=2e-06 w=2.3e-05 

m675 3 241 240 3 penh l=2e-06 w=4.8e-05 

m676 240 241 3 3 penh l=2e-06 w=4.8e-05 

m677 3 243 244 3 penh l=2e-06 w=2.2e-05 

m678 245 246 3 3 penh l=2e-06 w=5e-05 

m679 3 244 246 3 penh l=2e-06 w=4.7e-05 

m680 245 246 3 3 penh l=2e-06 w=4.8e-05 

m681 3 246 245 3 penh l=2e-06 w=4.8e-05 

m682 0 245 239 0 nenh l=2e-06 w=4.6e-05 

m683 239 245 0 0 nenh l=2e-06 w=4.8e-05 

m684 0 245 239 0 nenh l=2e-06 w=4.6e-05 

m685 239 245 0 0 nenh l=2e-06 w=4.8e-05 

m686 0 245 239 0 nenh l=2e-06 w=4.8e-05 

m687 239 245 0 0 nenh l=2e-06 w=4.8e-05 

m688 0 245 239 0 nenh l=2e-06 w=4.8e-05 

m689 239 245 0 0 nenh l=2e-06 w=4.6e-05 

m690 0 246 245 0 nenh l=2e-06 w=6e-05 

m691 245 246 0 0 nenh l=2e-06 w=6e-05 

m692 246 244 0 0 nenh l=2e-06 w=5e-05 

m693 0 241 240 0 nenh l=2e-06 w=3.5e-05 

m694 240 241 0 0 nenh l=2e-06 w=3.4e-05 

m695 0 243 244 0 nenh l=2e-06 w=2.4e-05 

m696 0 241 240 0 nenh l=2e-06 w=2.5e-05 

m697 240 241 0 0 nenh l=2e-06 w=2.5e-05 

m698 0 242 241 0 nenh l=2e-06 w=1.6e-05 

m699 242 243 0 0 nenh l=2e-06 w=2.3e-05 

m700 3 248 247 3 penh l=2e-06 w=9.7e-05 

m701 247 248 3 3 penh l=2e-06 w=9.5e-05 

m702 3 248 247 3 penh l=2e-06 w=9.5e-05 

m703 247 248 3 3 penh l=2e-06 w=9.6e-05 

m704 3 248 247 3 penh l=2e-06 w=9.6e-05 

m705 247 248 3 3 penh l=2e-06 w=9.5e-05 

m706 3 248 247 3 penh l=2e-06 w=9.5e-05 

m707 247 248 3 3 penh l=2e-06 w=9.6e-05 

m708 3 249 248 3 penh l=2e-06 w=5.3e-05 

m709 248 249 3 3 penh l=2e-06 w=5.3e-05 

m710 3 250 249 3 penh l=2e-06 w=4.9e-05 

m711 250 251 3 3 penh l=2e-06 w=2.3e-05 

m712 3 249 248 3 penh l=2e-06 w=4.8e-05 

m713 248 249 3 3 penh l=2e-06 w=4.8e-05 

m714 3 251 252 3 penh l=2e-06 w=2.2e-05 

m715 253 254 3 3 penh l=2e-06 w=5e-05 

m716 3 252 254 3 penh l=2e-06 w=4.7e-05 

m717 253 254 3 3 penh l=2e-06 w=4.8e-05 

m718 3 254 253 3 penh l=2e-06 w=4.8e-05 

m719 0 253 247 0 nenh l=2e-06 w=4.6e-05 

m720 247 253 0 0 nenh l=2e-06 w=4.8e-05 

m721 0 253 247 0 nenh l=2e-06 w=4.6e-05 

m722 247 253 0 0 nenh l=2e-06 w=4.8e-05 

m723 0 253 247 0 nenh l=2e-06 w=4.8e-05 

m724 247 253 0 0 nenh l=2e-06 w=4.8e-05 

m725 0 253 247 0 nenh l=2e-06 w=4.8e-05 

m726 247 253 0 0 nenh l=2e-06 w=4.6e-05 

m727 0 254 253 0 nenh l=2e-06 w=6e-05 

m728 253 254 0 0 nenh l=2e-06 w=6e-05 
