*CMOS7 SOI models
.MODEL P PMOS (                      LEVEL   = 10                 
+TNOM    = 27             VERSION = 3.1            TOX     = 7E-9               
+TSI     = 2.5E-7         TBOX    = 2E-7           XJ      = 2.5E-7             
+NCH     = 2E17           NSUB    = 8.7E16         VTH0    = -0.9064121         
+K1      = 0.5257214      K2      = 0.0201027      K3      = 3.4195228          
+K3B     = -1.2398434     K1W1    = 0              K1W2    = 0                  
+KB1     = 1              W0      = -2.418739E-7   NLX     = 2.432831E-7        
+DVT0W   = 0              AGIDL   = 0              BGIDL   = 0                  
+NGIDL   = 1.2            DVT1W   = 0              DVT2W   = -0.032             
+DVT0    = 1.4810964      DVT1    = 0.1879437      DVT2    = -3.27829E-3        
+U0      = 216.0817888    UA      = 2.139394E-9    UB      = 3.848066E-19       
+UC      = -6.84995E-11   VSAT    = 1.10135E5      A0      = 1.3246364          
+AGS     = 0.2215376      B0      = 1.995558E-12   B1      = -4.95361E-10       
+FBJTII  = 0              SII0    = 0.5            SII1    = 0.1                
+SII2    = 0              SIID    = 0              KETA    = -0.398761          
+KETAS   = 0              RTH0    = 0              A1      = 0.0211124          
+A2      = 1              RDSW    = 1.402601E3     PRWG    = 0                  
+PRWB    = 0              WR      = 1              WINT    = 2.371397E-8        
+LINT    = 8.205282E-8    DWG     = 0              DWB     = 0                  
+DWBC    = 0              VOFF    = -0.1262945     NFACTOR = 1.0932586          
+CIT     = 0              CDSC    = 2.4E-4         CDSCD   = 0                  
+CDSCB   = 0              BETA0   = 1.06713E-3     BETA1   = 0                  
+BETA2   = 0.1            ETA0    = 0.1559765      ETAB    = -0.03              
+DSUB    = 0.56           PCLM    = 1.1650678      PDIBLC1 = 1.065356E-3        
+PDIBLC2 = -1.748551E-4   PDIBLCB = 0              DROUT   = 9.161811E-3        
+PVAG    = 1.9125632      DELTA   = 9.709188E-3    ALPHA0  = -4.73915E-10       
+VDSATII0= 0.9            MOBMOD  = 1              TII     = 0                  
+PRT     = 0              UTE     = -2.4461313     KT1     = -0.5776039         
+KT1L    = 9.247616E-8    LII     = 0              KT2     = -0.0389376         
+UA1     = -3.331815E-9   UB1     = -3.00216E-19   UC1     = 2.222374E-11       
+AT      = -9.986609E4    WL      = 0              WLN     = 1                  
+WW      = 0              WWN     = 1              WWL     = 0                  
+LL      = 0              LLN     = 1              LW      = 0                  
+LWN     = 1              LWL     = 0              EF      = 1                  
+AF      = 1              KF      = 0              CAPMOD  = 2                  
+XPART   = 0              CJSWG   = 6.76335E-10    PBSWG   = 0.821564           
+MJSWG   = 0.340665       CSDESW  = 0              CGDO    = 5.1339E-10         
+CGSO    = 5.75767E-10    PARAMCHK= 0              BINUNIT = 1                  
+SHMOD   = 1              RBODY   = 0              RBSH    = 0                  
+NDIODE  = 1              NTUN    = 10             VTUN0   = 0                  
+ISBJT   = 1E-6           NBJT    = 1              LBJT0   = 2E-7               
+VABJT   = 10             AELY    = 0              AHLI    = 0                  
+ISDIF   = 0              ISREC   = 1E-5           ISTUN   = 0                  
+XBJT    = 1              XREC    = 1              XTUN    = 0                  
+NTRECF  = 0              NTRECR  = 0              LN      = 2E-6               
+NRECF0  = 2              NRECR0  = 10             VREC0   = 0                  
+ASD     = 0.3            DLCB    = 0              DLBG    = 0                  
+DELVT   = 0              FBODY   = 1              ACDE    = 1                  
+MOIN    = 15             LDIF0   = 1              NDIF    = -1                 
+RSH     = 8              SOIMOD  = 0              VBSA    = 0.011              
+ESATII  = 1E7            XDIF    = 1              NOFFFD  = 1                  
+VOFFFD  = 0              MOINFD  = 1E3             )                           
*                                                                               
.MODEL N NMOS (                      LEVEL   = 10                 
+TNOM    = 27             VERSION = 3.1            TOX     = 7E-9               
+TSI     = 2.5E-7         TBOX    = 2E-7           XJ      = 2.5E-7             
+NCH     = 2E17           NSUB    = 8.7E16         VTH0    = 0.5421286          
+K1      = 0.6519813      K2      = 0.0520801      K3      = 11.2560904         
+K3B     = -1.3178572     K1W1    = 0              K1W2    = 0                  
+KB1     = -0.0460471     W0      = -3.73197E-7    NLX     = 2.342418E-7        
+DVT0W   = 0              AGIDL   = 0              BGIDL   = 0                  
+NGIDL   = 1.2            DVT1W   = 5.3E6          DVT2W   = -0.032             
+DVT0    = 0.8048209      DVT1    = 0.5475204      DVT2    = -0.415164          
+U0      = 309.0998877    UA      = -5.86879E-10   UB      = 2.004095E-18       
+UC      = 4.836988E-11   VSAT    = 9.306711E4     A0      = 1.5141362          
+AGS     = 0.2342065      B0      = 1.222706E-5    B1      = 2.153857E-4        
+FBJTII  = 0                                       SII0    = 0.5                
+SII1    = 0.1            SII2    = 0              SIID    = 0                  
+KETA    = -0.0797035     KETAS   = 0              RTH0    = 0                  
+A1      = 0              A2      = 1              RDSW    = 759.1504209        
+PRWG    = 0              PRWB    = 0              WR      = 1                  
+WINT    = -1.382552E-8   LINT    = 5.352615E-8    DWG     = 0                  
+DWB     = 0              DWBC    = 0              VOFF    = -0.1412199         
+NFACTOR = 0.9701515      CIT     = 0              CDSC    = 2.4E-4             
+CDSCD   = 0              CDSCB   = 0              BETA0   = 3.571804E-3        
+BETA1   = 0              BETA2   = 0.1            ETA0    = 0.0512178          
+ETAB    = -0.07          DSUB    = 0.56           PCLM    = 0.6496703          
+PDIBLC1 = 0.010363       PDIBLC2 = 7.430693E-3    PDIBLCB = 0                  
+DROUT   = 0.084276       PVAG    = 1.0592725      DELTA   = 9.29919E-3         
+ALPHA0  = 2.547457E-11   VDSATII0= 0.9            MOBMOD  = 1                  
+TII     = 0              PRT     = 0              UTE     = -1.2878682         
+KT1     = -0.3260817     KT1L    = 3.973962E-8    LII     = 0                  
+KT2     = 0.017991       UA1     = 1.935335E-9    UB1     = -2.47840E-18       
+UC1     = -8.06782E-11   AT      = 1.666108E4     WL      = 0                  
+WLN     = 1              WW      = 0              WWN     = 1                  
+WWL     = 0              LL      = 0              LLN     = 1                  
+LW      = 0              LWN     = 1              LWL     = 0                  
+EF      = 1              AF      = 1              KF      = 0                  
+CAPMOD  = 2              XPART   = 0              CJSWG   = 6.5906E-10         
+PBSWG   = 0.808551       MJSWG   = 0.247833       CSDESW  = 0                  
+CGDO    = 4.25246E-10    CGSO    = 5.36696E-10    PARAMCHK= 1                  
+BINUNIT = 1              SHMOD   = 0              RBODY   = 0                  
+RBSH    = 0              NDIODE  = 1              NTUN    = 10                 
+VTUN0   = 0              ISBJT   = 1E-6           NBJT    = 1                  
+LBJT0   = 2E-7           VABJT   = 10             AELY    = 0                  
+AHLI    = 0              ISDIF   = 0              ISREC   = 1E-5               
+ISTUN   = 0              XBJT    = 1              XREC    = 1                  
+XTUN    = 0              NTRECF  = 0              NTRECR  = 0                  
+LN      = 2E-6           NRECF0  = 2              NRECR0  = 10                 
+VREC0   = 0              ASD     = 0.3            DLBG    = 0                  
+DELVT   = 0              FBODY   = 1              ACDE    = 1                  
+MOIN    = 15             LDIF0   = 1              NDIF    = 0                  
+RSH     = 0              SOIMOD  = 0              VBSA    = -0.147501          
+ESATII  = 1E7            XDIF    = 1              NOFFFD  = 1                  
+VOFFFD  = 0              MOINFD  = 1E3             )                           
